file 143360 1742391424                                          
version 3
run General-0-20250319-13:35:44-7346
attr configname General
attr datetime 20250319-13:35:44
attr datetimef 20250319-133544
attr experiment General
attr inifile omnetpp.ini
attr iterationvars ""
attr iterationvarsd ""
attr iterationvarsf ""
attr measurement ""
attr network mobiedgesim.simulations.MultiMecHost.MultiMecHost
attr processid 7346
attr repetition 0
attr replication #0
attr resultdir results
attr runnumber 0
attr seedset 0
config image-path ../../../inet/images:../../../Simu5G/images:../../../veins/subprojects/veins_inet/images:../../../veins/images
config cmdenv-autoflush true
config network mobiedgesim.simulations.MultiMecHost.MultiMecHost
config debug-on-errors false
config print-undisposed false
config sim-time-limit 10000s
config **.sctp.**.scalar-recording false
config **.sctp.**.vector-recording false
config **.routingRecorder.enabled false
config *.playgroundSizeX 20000m
config *.playgroundSizeY 20000m
config *.playgroundSizeZ 50m
config *.veinsManager.host "\"localhost\""
config *.veinsManager.moduleType "\"car=mobiedgesim.nodes.mobileNodes.ue.Ue *=mobiedgesim.nodes.mobileNodes.mmecHost.MmecHost\""
config *.veinsManager.moduleName "\"car=ue *=mmecHost\""
config *.veinsManager.launchConfig "xmldoc(\"heterogeneous.launchd.xml\")"
config *.veinsManager.updateInterval 1s
config *.ue[*].mobility.typename VeinsInetMobility
config *.mmecHost[*].mobility.typename VeinsInetMobility
config *.mmecHost*.numApps 2
config *.mmecHost*.app[0].typename UdpBasicApp
config *.mmecHost*.app[0].destAddresses "\"ue[0]\""
config *.mmecHost*.app[0].destPort 1000
config *.mmecHost*.app[0].sendInterval 1s
config *.mmecHost*.app[0].messageLength 10Byte
config *.mmecHost*.app[0].packetName "\"mmeHostData\""
config *.mmecHost*.app[1].typename UdpSink
config *.mmecHost*.app[1].localPort 1000
config *.ue*.numApps 2
config *.ue*.app[0].typename UdpBasicApp
config *.ue*.app[0].destAddresses "\"mmecHost[1]\""
config *.ue*.app[0].destPort 1000
config *.ue*.app[0].sendInterval 1s
config *.ue*.app[0].messageLength 10Byte
config *.ue*.app[0].packetName "\"ueData\""
config *.ue*.app[1].typename UdpSink
config *.ue*.app[1].localPort 1000
config *.mmecHost*.app[0].startTime 1s
config *.mmecHost*.app[1].startTime 1s
config *.ue*.app[0].startTime 1s
config *.ue*.app[1].startTime 1s
config *.ue*.numWlanInterfaces 1
config *.ue*.ipv4.configurator.interfaces "\"wlan lo0\""
config *.mmecHost*.numWlanInterfaces 1
config *.mmecHost*.ipv4.configurator.interfaces "\"wlan lo0\""
config **.wlan*.radio.antenna.typename IsotropicAntenna
config **.wlan*.radio.antenna.mobility.typename ""
config **.wlan*.radio.antenna.mobilityModule "\"^.^.^.mobility\""

vector 0 MultiMecHost.ue[0].lo[0].lo rcvdPkFromHl:vector(packetBytes) ETV
attr interpolationmode none
attr recordingmode vector(packetBytes)
attr source packetReceivedFromUpper
attr title "packets received from higher layer, packetBytes"
vector 1 MultiMecHost.ue[0].lo[0].lo passedUpPk:vector(packetBytes) ETV
attr interpolationmode none
attr recordingmode vector(packetBytes)
attr source packetSentToUpper
attr title "packets passed to higher layer, packetBytes"
vector 2 MultiMecHost.ue[0].lo[0] packetDropInterfaceDown:vector(packetBytes) ETV
attr interpolationmode none
attr recordingmode vector(packetBytes)
attr source packetDropReasonIsInterfaceDown(packetDropped)
attr title "packet drops: interface down, packetBytes"
vector 3 MultiMecHost.ue[0].lo[0] packetDropNoCarrier:vector(packetBytes) ETV
attr interpolationmode none
attr recordingmode vector(packetBytes)
attr source packetDropReasonIsNoCarrier(packetDropped)
attr title "packet drops: no carrier, packetBytes"
vector 4 MultiMecHost.ue[0].ipv4.ip packetDropAddressResolutionFailed:vector(packetBytes) ETV
attr interpolationmode none
attr recordingmode vector(packetBytes)
attr source packetDropReasonIsAddressResolutionFailed(packetDropped)
attr title "packet drop: address resolution failed, packetBytes"
vector 5 MultiMecHost.ue[0].ipv4.ip packetDropHopLimitReached:vector(packetBytes) ETV
attr interpolationmode none
attr recordingmode vector(packetBytes)
attr source packetDropReasonIsHopLimitReached(packetDropped)
attr title "packet drop: hop limit reached, packetBytes"
vector 6 MultiMecHost.ue[0].ipv4.ip packetDropForwardingDisabled:vector(packetBytes) ETV
attr interpolationmode none
attr recordingmode vector(packetBytes)
attr source packetDropReasonIsForwardingDisabled(packetDropped)
attr title "packet drop: forwarding disabled, packetBytes"
vector 7 MultiMecHost.ue[0].ipv4.ip packetDropNoInterfaceFound:vector(packetBytes) ETV
attr interpolationmode none
attr recordingmode vector(packetBytes)
attr source packetDropReasonIsNoInterfaceFound(packetDropped)
attr title "packet drop: no interface found, packetBytes"
vector 8 MultiMecHost.ue[0].ipv4.ip packetDropNoRouteFound:vector(packetBytes) ETV
attr interpolationmode none
attr recordingmode vector(packetBytes)
attr source packetDropReasonIsNoRouteFound(packetDropped)
attr title "packet drop: no route found, packetBytes"
vector 9 MultiMecHost.ue[0].ipv4.ip packetDropUndefined:vector(packetBytes) ETV
attr interpolationmode none
attr recordingmode vector(packetBytes)
attr source packetDropReasonIsUndefined(packetDropped)
attr title "packet drop: undefined, packetBytes"
vector 10 MultiMecHost.ue[0].ipv4.arp arpRequestSent:vector(packetBytes) ETV
attr recordingmode vector(packetBytes)
attr source arpRequestSent
attr title "ARP request sent, packetBytes"
vector 11 MultiMecHost.ue[0].ipv4.arp arpReplySent:vector(packetBytes) ETV
attr recordingmode vector(packetBytes)
attr source arpReplySent
attr title "ARP replies sent, packetBytes"
vector 12 MultiMecHost.ue[0].udp packetSent:vector(packetBytes) ETV
attr interpolationmode none
attr recordingmode vector(packetBytes)
attr source packetSent
attr title "packets sent, packetBytes"
vector 13 MultiMecHost.ue[0].udp packetReceived:vector(packetBytes) ETV
attr interpolationmode none
attr recordingmode vector(packetBytes)
attr source packetReceived
attr title "packets received, packetBytes"
vector 14 MultiMecHost.ue[0].udp passedUpPk:vector(count) ETV
attr interpolationmode none
attr recordingmode vector(count)
attr source packetSentToUpper
attr title "packets passed up, count"
vector 15 MultiMecHost.ue[0].udp droppedPkWrongPort:vector(count) ETV
attr interpolationmode none
attr recordingmode vector(count)
attr source packetDropReasonIsNoPortFound(packetDropped)
attr title "packets dropped (wrong port), count"
vector 16 MultiMecHost.ue[0].udp droppedPkBadChecksum:vector(count) ETV
attr interpolationmode none
attr recordingmode vector(count)
attr source packetDropReasonIsIncorrectlyReceived(packetDropped)
attr title "packets dropped (checksum error), count"
vector 17 MultiMecHost.ue[0].app[0] packetReceived:vector(packetBytes) ETV
attr interpolationmode none
attr recordingmode vector(packetBytes)
attr source packetReceived
attr title "packets received, packetBytes"
vector 18 MultiMecHost.ue[0].app[0] throughput:vector ETV
attr recordingmode vector
attr source throughput(packetReceived)
attr title throughput
attr unit bps
vector 19 MultiMecHost.ue[0].app[0] packetSent:vector(packetBytes) ETV
attr interpolationmode none
attr recordingmode vector(packetBytes)
attr source packetSent
attr title "packets sent, packetBytes"
vector 20 MultiMecHost.ue[0].app[0] rcvdPkLifetime:vector ETV
attr interpolationmode none
attr recordingmode vector
attr source dataAge(packetReceived)
attr title "received packet lifetime"
attr unit s
vector 21 MultiMecHost.ue[0].app[0] rcvdPkSeqNo:vector ETV
attr interpolationmode none
attr recordingmode vector
attr source appPkSeqNo(packetReceived)
attr title "received packet sequence number"
vector 22 MultiMecHost.ue[0].app[1] packetReceived:vector(packetBytes) ETV
attr interpolationmode none
attr recordingmode vector(packetBytes)
attr source packetReceived
attr title "packets received, packetBytes"
vector 23 MultiMecHost.ue[0].app[1] throughput:vector ETV
attr recordingmode vector
attr source throughput(packetReceived)
attr title throughput
attr unit bps
vector 24 MultiMecHost.ue[0].app[1] endToEndDelay:vector ETV
attr interpolationmode none
attr recordingmode vector
attr source dataAge(packetReceived)
attr title "end-to-end delay"
attr unit s
vector 25 MultiMecHost.ue[0].app[1] rcvdPkSeqNo:vector ETV
attr interpolationmode none
attr recordingmode vector
attr source appPkSeqNo(packetReceived)
attr title "received packet sequence number"
vector 26 MultiMecHost.ue[0].wlan[0].agent sentRequest:vector ETV
attr recordingmode vector
attr title "sent requests"
vector 27 MultiMecHost.ue[0].wlan[0].agent acceptConfirm:vector ETV
attr recordingmode vector
attr title "accepted confirms"
vector 28 MultiMecHost.ue[0].wlan[0].agent dropConfirm:vector ETV
attr recordingmode vector
attr title "dropped confirms"
vector 29 MultiMecHost.ue[0].wlan[0].mac.dcf.channelAccess.pendingQueue queueLength:vector ETV
attr autoWarmupFilter false
attr interpolationmode sample-hold
attr recordingmode vector
attr source "warmup(atomic(constant0(packetPushEnded) + count(packetPushStarted) - count(packetPulled) - count(packetRemoved) - count(packetDropped)))"
attr title "queue length"
attr unit pk
vector 30 MultiMecHost.ue[0].wlan[0].mac.dcf.channelAccess.pendingQueue queueBitLength:vector ETV
attr autoWarmupFilter false
attr interpolationmode sample-hold
attr recordingmode vector
attr source "warmup(atomic(constant0(packetPushEnded) + sum(packetLength(packetPushStarted)) - sum(packetLength(packetPulled)) - sum(packetLength(packetRemoved)) - sum(packetLength(packetDropped))))"
attr title "queue bit length"
attr unit b
vector 31 MultiMecHost.ue[0].wlan[0].mac.dcf.channelAccess.pendingQueue queueingTime:vector ETV
attr interpolationmode none
attr recordingmode vector
attr source queueingTime(packetPulled)
attr title "queueing times"
attr unit s
vector 32 MultiMecHost.ue[0].wlan[0].mac.dcf.channelAccess.pendingQueue incomingPacketLengths:vector ETV
attr interpolationmode none
attr recordingmode vector
attr source packetLength(packetPushStarted)
attr title "incoming packet lengths"
attr unit b
vector 33 MultiMecHost.ue[0].wlan[0].mac.dcf.channelAccess.pendingQueue incomingDataRate:vector ETV
attr interpolationmode linear
attr recordingmode vector
attr source throughput(packetPushStarted)
attr title "incoming datarate"
attr unit bps
vector 34 MultiMecHost.ue[0].wlan[0].mac.dcf.channelAccess.pendingQueue outgoingPacketLengths:vector ETV
attr interpolationmode none
attr recordingmode vector
attr source packetLength(packetPulled)
attr title "outgoing packet lengths"
attr unit b
vector 35 MultiMecHost.ue[0].wlan[0].mac.dcf.channelAccess.pendingQueue outgoingDataRate:vector ETV
attr interpolationmode linear
attr recordingmode vector
attr source throughput(packetPulled)
attr title "outgoing datarate"
attr unit bps
vector 36 MultiMecHost.ue[0].wlan[0].mac.dcf.channelAccess.pendingQueue droppedPacketLengthsQueueOverflow:vector ETV
attr interpolationmode none
attr recordingmode vector
attr source packetLength(packetDropReasonIsQueueOverflow(packetDropped))
attr title "dropped packet lengths: queue overflow"
attr unit b
vector 37 MultiMecHost.ue[0].wlan[0].mac.dcf.channelAccess.pendingQueue flowQueueingTime:vector ETV
attr interpolationmode none
attr recordingmode vector
attr source queueingTime(demuxFlow(packetPulled))
attr title "flow queueing times"
attr unit s
vector 38 MultiMecHost.ue[0].wlan[0].mac.dcf.channelAccess.pendingQueue flowIncomingDataRate:vector ETV
attr interpolationmode linear
attr recordingmode vector
attr source throughput(flowPacketLength(demuxFlow(packetPushStarted)))
attr title "flow specific incoming data rate"
attr unit bps
vector 39 MultiMecHost.ue[0].wlan[0].mac.dcf.channelAccess.pendingQueue flowOutgoingDataRate:vector ETV
attr interpolationmode linear
attr recordingmode vector
attr source throughput(flowPacketLength(demuxFlow(packetPulled)))
attr title "flow specific outgoing data rate"
attr unit bps
vector 40 MultiMecHost.ue[0].wlan[0].mac.dcf.channelAccess.inProgressFrames queueingTime:vector ETV
attr interpolationmode none
attr recordingmode vector
attr source queueingTime(packetDequeued)
attr title "queueing times"
vector 41 MultiMecHost.ue[0].wlan[0].mac.dcf.channelAccess.inProgressFrames queueLength:vector ETV
attr autoWarmupFilter false
attr interpolationmode sample-hold
attr recordingmode vector
attr source "warmup(count(packetEnqueued) - count(packetDequeued))"
attr title "queue length"
vector 42 MultiMecHost.ue[0].wlan[0].mac.dcf.channelAccess.contention backoffPeriodGenerated:vector ETV
attr interpolationmode none
attr recordingmode vector
attr title "backoff periods"
vector 43 MultiMecHost.ue[0].wlan[0].mac.dcf.channelAccess.contention backoffActive:vector ETV
attr autoWarmupFilter false
attr interpolationmode sample-hold
attr recordingmode vector
attr source warmup(count(backoffStarted)-count(backoffStopped))
attr title "backoff active"
vector 44 MultiMecHost.ue[0].wlan[0].mac.dcf.channelAccess.contention stateChanged:vector ETV
attr enum IDLE,DEFER,IFS_AND_BACKOFF
attr interpolationmode none
attr recordingmode vector
attr title "contention state changed"
attr type enum
vector 45 MultiMecHost.ue[0].wlan[0].mac.dcf.recipientMacDataService packetDropDuplicateDetected:vector(packetBytes) ETV
attr interpolationmode none
attr recordingmode vector(packetBytes)
attr source packetDropReasonIsDuplicateDetected(packetDropped)
attr title "packet drops: duplicate detected, packetBytes"
vector 46 MultiMecHost.ue[0].wlan[0].mac.dcf.recoveryProcedure contentionWindowChanged:vector ETV
attr interpolationmode sample-hold
attr recordingmode vector
attr title "contention window"
vector 47 MultiMecHost.ue[0].wlan[0].mac.dcf packetSentToPeer:vector(packetBytes) ETV
attr interpolationmode none
attr recordingmode vector(packetBytes)
attr title "packets sent, packetBytes"
vector 48 MultiMecHost.ue[0].wlan[0].mac.dcf packetSentToPeerUnicast:vector(packetBytes) ETV
attr interpolationmode none
attr recordingmode vector(packetBytes)
attr source ieee80211Unicast(packetSentToPeer)
attr title "packets sent: unicast, packetBytes"
vector 49 MultiMecHost.ue[0].wlan[0].mac.dcf packetSentToPeerMulticast:vector(packetBytes) ETV
attr interpolationmode none
attr recordingmode vector(packetBytes)
attr source ieee80211Multicast(packetSentToPeer)
attr title "packets sent: multicast, packetBytes"
vector 50 MultiMecHost.ue[0].wlan[0].mac.dcf packetSentToPeerBroadcast:vector(packetBytes) ETV
attr interpolationmode none
attr recordingmode vector(packetBytes)
attr source ieee80211Broadcast(packetSentToPeer)
attr title "packets sent: broadcast , packetBytes"
vector 51 MultiMecHost.ue[0].wlan[0].mac.dcf packetSentToPeerWithRetry:vector(packetBytes) ETV
attr interpolationmode none
attr recordingmode vector(packetBytes)
attr source ieee80211Retry(packetSentToPeer)
attr title "packets sent: with retry, packetBytes"
vector 52 MultiMecHost.ue[0].wlan[0].mac.dcf packetSentToPeerWithoutRetry:vector(packetBytes) ETV
attr interpolationmode none
attr recordingmode vector(packetBytes)
attr source ieee80211NotRetry(packetSentToPeer)
attr title "packets sent: without retry, packetBytes"
vector 53 MultiMecHost.ue[0].wlan[0].mac.dcf packetReceivedFromPeer:vector(packetBytes) ETV
attr interpolationmode none
attr recordingmode vector(packetBytes)
attr title "packets received, packetBytes"
vector 54 MultiMecHost.ue[0].wlan[0].mac.dcf packetReceivedFromPeerUnicast:vector(packetBytes) ETV
attr interpolationmode none
attr recordingmode vector(packetBytes)
attr source ieee80211Unicast(packetReceivedFromPeer)
attr title "packets received: unicast, packetBytes"
vector 55 MultiMecHost.ue[0].wlan[0].mac.dcf packetReceivedFromPeerMulticast:vector(packetBytes) ETV
attr interpolationmode none
attr recordingmode vector(packetBytes)
attr source ieee80211Multicast(packetReceivedFromPeer)
attr title "packets received: multicast, packetBytes"
vector 56 MultiMecHost.ue[0].wlan[0].mac.dcf packetReceivedFromPeerBroadcast:vector(packetBytes) ETV
attr interpolationmode none
attr recordingmode vector(packetBytes)
attr source ieee80211Broadcast(packetReceivedFromPeer)
attr title "packets received: broadcast, packetBytes"
vector 57 MultiMecHost.ue[0].wlan[0].mac.dcf packetReceivedFromPeerWithRetry:vector(packetBytes) ETV
attr interpolationmode none
attr recordingmode vector(packetBytes)
attr source ieee80211Retry(packetReceivedFromPeer)
attr title "packets received: with retry, packetBytes"
vector 58 MultiMecHost.ue[0].wlan[0].mac.dcf packetReceivedFromPeerWithoutRetry:vector(packetBytes) ETV
attr interpolationmode none
attr recordingmode vector(packetBytes)
attr source ieee80211NotRetry(packetReceivedFromPeer)
attr title "packets received: without retry, packetBytes"
vector 59 MultiMecHost.ue[0].wlan[0].mac.dcf packetDrop:vector(packetBytes) ETV
attr interpolationmode none
attr recordingmode vector(packetBytes)
attr source packetDropped
attr title "packet drops, packetBytes"
vector 60 MultiMecHost.ue[0].wlan[0].mac.dcf packetDropNotAddressedToUs:vector(packetBytes) ETV
attr interpolationmode none
attr recordingmode vector(packetBytes)
attr source packetDropReasonIsNotAddressedToUs(packetDropped)
attr title "packet drops: not addressed to us, packetBytes"
vector 61 MultiMecHost.ue[0].wlan[0].mac.dcf packetDropQueueOverflow:vector(packetBytes) ETV
attr interpolationmode none
attr recordingmode vector(packetBytes)
attr source packetDropReasonIsQueueOverflow(packetDropped)
attr title "packet drops: queue overflow, packetBytes"
vector 62 MultiMecHost.ue[0].wlan[0].mac.dcf packetDropRetryLimitReached:vector(packetBytes) ETV
attr interpolationmode none
attr recordingmode vector(packetBytes)
attr source packetDropReasonIsRetryLimitReached(packetDropped)
attr title "packet drops: retry limit reached, packetBytes"
vector 63 MultiMecHost.ue[0].wlan[0].mac.dcf frameSequenceActive:vector ETV
attr autoWarmupFilter false
attr interpolationmode sample-hold
attr recordingmode vector
attr source warmup(count(frameSequenceStarted)-count(frameSequenceFinished))
attr title "frame sequence active"
vector 64 MultiMecHost.ue[0].wlan[0].mac.dcf datarateSelected:vector ETV
attr interpolationmode none
attr recordingmode vector
attr title "datarates selected"
vector 65 MultiMecHost.ue[0].wlan[0].mac.rx nav:vector ETV
attr interpolationmode linear
attr recordingmode vector
attr source navChanged
attr title "network allocation vector"
vector 66 MultiMecHost.ue[0].wlan[0].mac packetSentToUpper:vector(packetBytes) ETV
attr interpolationmode none
attr recordingmode vector(packetBytes)
attr title "packets sent to upper layer, packetBytes"
vector 67 MultiMecHost.ue[0].wlan[0].mac packetSentToLower:vector(packetBytes) ETV
attr interpolationmode none
attr recordingmode vector(packetBytes)
attr title "packets sent to lower layer, packetBytes"
vector 68 MultiMecHost.ue[0].wlan[0].mac packetReceivedFromUpper:vector(packetBytes) ETV
attr interpolationmode none
attr recordingmode vector(packetBytes)
attr title "packets received from upper layer, packetBytes"
vector 69 MultiMecHost.ue[0].wlan[0].mac packetReceivedFromLower:vector(packetBytes) ETV
attr interpolationmode none
attr recordingmode vector(packetBytes)
attr title "packets received from lower layer, packetBytes"
vector 70 MultiMecHost.ue[0].wlan[0].mac packetDrop:vector(packetBytes) ETV
attr interpolationmode none
attr recordingmode vector(packetBytes)
attr source packetDropped
attr title "packet drops, packetBytes"
vector 71 MultiMecHost.ue[0].wlan[0].mac packetDropIncorrectlyReceived:vector(packetBytes) ETV
attr interpolationmode none
attr recordingmode vector(packetBytes)
attr source packetDropReasonIsIncorrectlyReceived(packetDropped)
attr title "packet drops: incorrectly received, packetBytes"
vector 72 MultiMecHost.ue[0].wlan[0].mac packetDropNotAddressedToUs:vector(packetBytes) ETV
attr interpolationmode none
attr recordingmode vector(packetBytes)
attr source packetDropReasonIsNotAddressedToUs(packetDropped)
attr title "packet drops: not addressed to us, packetBytes"
vector 73 MultiMecHost.ue[0].wlan[0].mac packetDropQueueOverflow:vector(packetBytes) ETV
attr interpolationmode none
attr recordingmode vector(packetBytes)
attr source packetDropReasonIsQueueOverflow(packetDropped)
attr title "packet drops: queue overflow, packetBytes"
vector 74 MultiMecHost.ue[0].wlan[0].mac packetDropRetryLimitReached:vector(packetBytes) ETV
attr interpolationmode none
attr recordingmode vector(packetBytes)
attr source packetDropReasonIsRetryLimitReached(packetDropped)
attr title "packet drops: retry limit reached, packetBytes"
vector 75 MultiMecHost.ue[0].wlan[0].mac packetDropDuplicateDetected:vector(packetBytes) ETV
attr interpolationmode none
attr recordingmode vector(packetBytes)
attr source packetDropReasonIsDuplicateDetected(packetDropped)
attr title "packet drops: duplicate detected, packetBytes"
vector 76 MultiMecHost.ue[0].wlan[0].mac packetDropOther:vector(packetBytes) ETV
attr interpolationmode none
attr recordingmode vector(packetBytes)
attr source packetDropReasonIsOther(packetDropped)
attr title "packet drops: other, packetBytes"
vector 77 MultiMecHost.ue[0].wlan[0].radio radioMode:vector ETV
attr interpolationmode sample-hold
attr recordingmode vector
attr source radioModeChanged
attr title "Radio mode"
vector 78 MultiMecHost.ue[0].wlan[0].radio receptionState:vector ETV
attr interpolationmode sample-hold
attr recordingmode vector
attr source receptionStateChanged
attr title "Radio reception state"
vector 79 MultiMecHost.ue[0].wlan[0].radio transmissionState:vector ETV
attr interpolationmode sample-hold
attr recordingmode vector
attr source transmissionStateChanged
attr title "Radio transmission state"
vector 80 MultiMecHost.ue[0].wlan[0].radio radioChannel:vector ETV
attr interpolationmode sample-hold
attr recordingmode vector
attr source radioChannelChanged
attr title "Radio channel"
vector 81 MultiMecHost.ue[0].wlan[0] packetDropInterfaceDown:vector(packetBytes) ETV
attr interpolationmode none
attr recordingmode vector(packetBytes)
attr source packetDropReasonIsInterfaceDown(packetDropped)
attr title "packet drops: interface down, packetBytes"
vector 82 MultiMecHost.ue[0].wlan[0] packetDropNoCarrier:vector(packetBytes) ETV
attr interpolationmode none
attr recordingmode vector(packetBytes)
attr source packetDropReasonIsNoCarrier(packetDropped)
attr title "packet drops: no carrier, packetBytes"
vector 83 MultiMecHost.mmecHost[1].lo[0].lo rcvdPkFromHl:vector(packetBytes) ETV
attr interpolationmode none
attr recordingmode vector(packetBytes)
attr source packetReceivedFromUpper
attr title "packets received from higher layer, packetBytes"
vector 84 MultiMecHost.mmecHost[1].lo[0].lo passedUpPk:vector(packetBytes) ETV
attr interpolationmode none
attr recordingmode vector(packetBytes)
attr source packetSentToUpper
attr title "packets passed to higher layer, packetBytes"
vector 85 MultiMecHost.mmecHost[1].lo[0] packetDropInterfaceDown:vector(packetBytes) ETV
attr interpolationmode none
attr recordingmode vector(packetBytes)
attr source packetDropReasonIsInterfaceDown(packetDropped)
attr title "packet drops: interface down, packetBytes"
vector 86 MultiMecHost.mmecHost[1].lo[0] packetDropNoCarrier:vector(packetBytes) ETV
attr interpolationmode none
attr recordingmode vector(packetBytes)
attr source packetDropReasonIsNoCarrier(packetDropped)
attr title "packet drops: no carrier, packetBytes"
vector 87 MultiMecHost.mmecHost[1].ipv4.ip packetDropAddressResolutionFailed:vector(packetBytes) ETV
attr interpolationmode none
attr recordingmode vector(packetBytes)
attr source packetDropReasonIsAddressResolutionFailed(packetDropped)
attr title "packet drop: address resolution failed, packetBytes"
vector 88 MultiMecHost.mmecHost[1].ipv4.ip packetDropHopLimitReached:vector(packetBytes) ETV
attr interpolationmode none
attr recordingmode vector(packetBytes)
attr source packetDropReasonIsHopLimitReached(packetDropped)
attr title "packet drop: hop limit reached, packetBytes"
vector 89 MultiMecHost.mmecHost[1].ipv4.ip packetDropForwardingDisabled:vector(packetBytes) ETV
attr interpolationmode none
attr recordingmode vector(packetBytes)
attr source packetDropReasonIsForwardingDisabled(packetDropped)
attr title "packet drop: forwarding disabled, packetBytes"
vector 90 MultiMecHost.mmecHost[1].ipv4.ip packetDropNoInterfaceFound:vector(packetBytes) ETV
attr interpolationmode none
attr recordingmode vector(packetBytes)
attr source packetDropReasonIsNoInterfaceFound(packetDropped)
attr title "packet drop: no interface found, packetBytes"
vector 91 MultiMecHost.mmecHost[1].ipv4.ip packetDropNoRouteFound:vector(packetBytes) ETV
attr interpolationmode none
attr recordingmode vector(packetBytes)
attr source packetDropReasonIsNoRouteFound(packetDropped)
attr title "packet drop: no route found, packetBytes"
vector 92 MultiMecHost.mmecHost[1].ipv4.ip packetDropUndefined:vector(packetBytes) ETV
attr interpolationmode none
attr recordingmode vector(packetBytes)
attr source packetDropReasonIsUndefined(packetDropped)
attr title "packet drop: undefined, packetBytes"
vector 93 MultiMecHost.mmecHost[1].ipv4.arp arpRequestSent:vector(packetBytes) ETV
attr recordingmode vector(packetBytes)
attr source arpRequestSent
attr title "ARP request sent, packetBytes"
vector 94 MultiMecHost.mmecHost[1].ipv4.arp arpReplySent:vector(packetBytes) ETV
attr recordingmode vector(packetBytes)
attr source arpReplySent
attr title "ARP replies sent, packetBytes"
vector 95 MultiMecHost.mmecHost[1].udp packetSent:vector(packetBytes) ETV
attr interpolationmode none
attr recordingmode vector(packetBytes)
attr source packetSent
attr title "packets sent, packetBytes"
vector 96 MultiMecHost.mmecHost[1].udp packetReceived:vector(packetBytes) ETV
attr interpolationmode none
attr recordingmode vector(packetBytes)
attr source packetReceived
attr title "packets received, packetBytes"
vector 97 MultiMecHost.mmecHost[1].udp passedUpPk:vector(count) ETV
attr interpolationmode none
attr recordingmode vector(count)
attr source packetSentToUpper
attr title "packets passed up, count"
vector 98 MultiMecHost.mmecHost[1].udp droppedPkWrongPort:vector(count) ETV
attr interpolationmode none
attr recordingmode vector(count)
attr source packetDropReasonIsNoPortFound(packetDropped)
attr title "packets dropped (wrong port), count"
vector 99 MultiMecHost.mmecHost[1].udp droppedPkBadChecksum:vector(count) ETV
attr interpolationmode none
attr recordingmode vector(count)
attr source packetDropReasonIsIncorrectlyReceived(packetDropped)
attr title "packets dropped (checksum error), count"
vector 100 MultiMecHost.mmecHost[1].app[0] packetReceived:vector(packetBytes) ETV
attr interpolationmode none
attr recordingmode vector(packetBytes)
attr source packetReceived
attr title "packets received, packetBytes"
vector 101 MultiMecHost.mmecHost[1].app[0] throughput:vector ETV
attr recordingmode vector
attr source throughput(packetReceived)
attr title throughput
attr unit bps
vector 102 MultiMecHost.mmecHost[1].app[0] packetSent:vector(packetBytes) ETV
attr interpolationmode none
attr recordingmode vector(packetBytes)
attr source packetSent
attr title "packets sent, packetBytes"
vector 103 MultiMecHost.mmecHost[1].app[0] rcvdPkLifetime:vector ETV
attr interpolationmode none
attr recordingmode vector
attr source dataAge(packetReceived)
attr title "received packet lifetime"
attr unit s
vector 104 MultiMecHost.mmecHost[1].app[0] rcvdPkSeqNo:vector ETV
attr interpolationmode none
attr recordingmode vector
attr source appPkSeqNo(packetReceived)
attr title "received packet sequence number"
vector 105 MultiMecHost.mmecHost[1].app[1] packetReceived:vector(packetBytes) ETV
attr interpolationmode none
attr recordingmode vector(packetBytes)
attr source packetReceived
attr title "packets received, packetBytes"
vector 106 MultiMecHost.mmecHost[1].app[1] throughput:vector ETV
attr recordingmode vector
attr source throughput(packetReceived)
attr title throughput
attr unit bps
vector 107 MultiMecHost.mmecHost[1].app[1] endToEndDelay:vector ETV
attr interpolationmode none
attr recordingmode vector
attr source dataAge(packetReceived)
attr title "end-to-end delay"
attr unit s
vector 108 MultiMecHost.mmecHost[1].app[1] rcvdPkSeqNo:vector ETV
attr interpolationmode none
attr recordingmode vector
attr source appPkSeqNo(packetReceived)
attr title "received packet sequence number"
vector 109 MultiMecHost.mmecHost[1].wlan[0].agent sentRequest:vector ETV
attr recordingmode vector
attr title "sent requests"
vector 110 MultiMecHost.mmecHost[1].wlan[0].agent acceptConfirm:vector ETV
attr recordingmode vector
attr title "accepted confirms"
vector 111 MultiMecHost.mmecHost[1].wlan[0].agent dropConfirm:vector ETV
attr recordingmode vector
attr title "dropped confirms"
vector 112 MultiMecHost.mmecHost[1].wlan[0].mac.dcf.channelAccess.pendingQueue queueLength:vector ETV
attr autoWarmupFilter false
attr interpolationmode sample-hold
attr recordingmode vector
attr source "warmup(atomic(constant0(packetPushEnded) + count(packetPushStarted) - count(packetPulled) - count(packetRemoved) - count(packetDropped)))"
attr title "queue length"
attr unit pk
vector 113 MultiMecHost.mmecHost[1].wlan[0].mac.dcf.channelAccess.pendingQueue queueBitLength:vector ETV
attr autoWarmupFilter false
attr interpolationmode sample-hold
attr recordingmode vector
attr source "warmup(atomic(constant0(packetPushEnded) + sum(packetLength(packetPushStarted)) - sum(packetLength(packetPulled)) - sum(packetLength(packetRemoved)) - sum(packetLength(packetDropped))))"
attr title "queue bit length"
attr unit b
vector 114 MultiMecHost.mmecHost[1].wlan[0].mac.dcf.channelAccess.pendingQueue queueingTime:vector ETV
attr interpolationmode none
attr recordingmode vector
attr source queueingTime(packetPulled)
attr title "queueing times"
attr unit s
vector 115 MultiMecHost.mmecHost[1].wlan[0].mac.dcf.channelAccess.pendingQueue incomingPacketLengths:vector ETV
attr interpolationmode none
attr recordingmode vector
attr source packetLength(packetPushStarted)
attr title "incoming packet lengths"
attr unit b
vector 116 MultiMecHost.mmecHost[1].wlan[0].mac.dcf.channelAccess.pendingQueue incomingDataRate:vector ETV
attr interpolationmode linear
attr recordingmode vector
attr source throughput(packetPushStarted)
attr title "incoming datarate"
attr unit bps
vector 117 MultiMecHost.mmecHost[1].wlan[0].mac.dcf.channelAccess.pendingQueue outgoingPacketLengths:vector ETV
attr interpolationmode none
attr recordingmode vector
attr source packetLength(packetPulled)
attr title "outgoing packet lengths"
attr unit b
vector 118 MultiMecHost.mmecHost[1].wlan[0].mac.dcf.channelAccess.pendingQueue outgoingDataRate:vector ETV
attr interpolationmode linear
attr recordingmode vector
attr source throughput(packetPulled)
attr title "outgoing datarate"
attr unit bps
vector 119 MultiMecHost.mmecHost[1].wlan[0].mac.dcf.channelAccess.pendingQueue droppedPacketLengthsQueueOverflow:vector ETV
attr interpolationmode none
attr recordingmode vector
attr source packetLength(packetDropReasonIsQueueOverflow(packetDropped))
attr title "dropped packet lengths: queue overflow"
attr unit b
vector 120 MultiMecHost.mmecHost[1].wlan[0].mac.dcf.channelAccess.pendingQueue flowQueueingTime:vector ETV
attr interpolationmode none
attr recordingmode vector
attr source queueingTime(demuxFlow(packetPulled))
attr title "flow queueing times"
attr unit s
vector 121 MultiMecHost.mmecHost[1].wlan[0].mac.dcf.channelAccess.pendingQueue flowIncomingDataRate:vector ETV
attr interpolationmode linear
attr recordingmode vector
attr source throughput(flowPacketLength(demuxFlow(packetPushStarted)))
attr title "flow specific incoming data rate"
attr unit bps
vector 122 MultiMecHost.mmecHost[1].wlan[0].mac.dcf.channelAccess.pendingQueue flowOutgoingDataRate:vector ETV
attr interpolationmode linear
attr recordingmode vector
attr source throughput(flowPacketLength(demuxFlow(packetPulled)))
attr title "flow specific outgoing data rate"
attr unit bps
vector 123 MultiMecHost.mmecHost[1].wlan[0].mac.dcf.channelAccess.inProgressFrames queueingTime:vector ETV
attr interpolationmode none
attr recordingmode vector
attr source queueingTime(packetDequeued)
attr title "queueing times"
vector 124 MultiMecHost.mmecHost[1].wlan[0].mac.dcf.channelAccess.inProgressFrames queueLength:vector ETV
attr autoWarmupFilter false
attr interpolationmode sample-hold
attr recordingmode vector
attr source "warmup(count(packetEnqueued) - count(packetDequeued))"
attr title "queue length"
vector 125 MultiMecHost.mmecHost[1].wlan[0].mac.dcf.channelAccess.contention backoffPeriodGenerated:vector ETV
attr interpolationmode none
attr recordingmode vector
attr title "backoff periods"
vector 126 MultiMecHost.mmecHost[1].wlan[0].mac.dcf.channelAccess.contention backoffActive:vector ETV
attr autoWarmupFilter false
attr interpolationmode sample-hold
attr recordingmode vector
attr source warmup(count(backoffStarted)-count(backoffStopped))
attr title "backoff active"
vector 127 MultiMecHost.mmecHost[1].wlan[0].mac.dcf.channelAccess.contention stateChanged:vector ETV
attr enum IDLE,DEFER,IFS_AND_BACKOFF
attr interpolationmode none
attr recordingmode vector
attr title "contention state changed"
attr type enum
vector 128 MultiMecHost.mmecHost[1].wlan[0].mac.dcf.recipientMacDataService packetDropDuplicateDetected:vector(packetBytes) ETV
attr interpolationmode none
attr recordingmode vector(packetBytes)
attr source packetDropReasonIsDuplicateDetected(packetDropped)
attr title "packet drops: duplicate detected, packetBytes"
vector 129 MultiMecHost.mmecHost[1].wlan[0].mac.dcf.recoveryProcedure contentionWindowChanged:vector ETV
attr interpolationmode sample-hold
attr recordingmode vector
attr title "contention window"
vector 130 MultiMecHost.mmecHost[1].wlan[0].mac.dcf packetSentToPeer:vector(packetBytes) ETV
attr interpolationmode none
attr recordingmode vector(packetBytes)
attr title "packets sent, packetBytes"
vector 131 MultiMecHost.mmecHost[1].wlan[0].mac.dcf packetSentToPeerUnicast:vector(packetBytes) ETV
attr interpolationmode none
attr recordingmode vector(packetBytes)
attr source ieee80211Unicast(packetSentToPeer)
attr title "packets sent: unicast, packetBytes"
vector 132 MultiMecHost.mmecHost[1].wlan[0].mac.dcf packetSentToPeerMulticast:vector(packetBytes) ETV
attr interpolationmode none
attr recordingmode vector(packetBytes)
attr source ieee80211Multicast(packetSentToPeer)
attr title "packets sent: multicast, packetBytes"
vector 133 MultiMecHost.mmecHost[1].wlan[0].mac.dcf packetSentToPeerBroadcast:vector(packetBytes) ETV
attr interpolationmode none
attr recordingmode vector(packetBytes)
attr source ieee80211Broadcast(packetSentToPeer)
attr title "packets sent: broadcast , packetBytes"
vector 134 MultiMecHost.mmecHost[1].wlan[0].mac.dcf packetSentToPeerWithRetry:vector(packetBytes) ETV
attr interpolationmode none
attr recordingmode vector(packetBytes)
attr source ieee80211Retry(packetSentToPeer)
attr title "packets sent: with retry, packetBytes"
vector 135 MultiMecHost.mmecHost[1].wlan[0].mac.dcf packetSentToPeerWithoutRetry:vector(packetBytes) ETV
attr interpolationmode none
attr recordingmode vector(packetBytes)
attr source ieee80211NotRetry(packetSentToPeer)
attr title "packets sent: without retry, packetBytes"
vector 136 MultiMecHost.mmecHost[1].wlan[0].mac.dcf packetReceivedFromPeer:vector(packetBytes) ETV
attr interpolationmode none
attr recordingmode vector(packetBytes)
attr title "packets received, packetBytes"
vector 137 MultiMecHost.mmecHost[1].wlan[0].mac.dcf packetReceivedFromPeerUnicast:vector(packetBytes) ETV
attr interpolationmode none
attr recordingmode vector(packetBytes)
attr source ieee80211Unicast(packetReceivedFromPeer)
attr title "packets received: unicast, packetBytes"
vector 138 MultiMecHost.mmecHost[1].wlan[0].mac.dcf packetReceivedFromPeerMulticast:vector(packetBytes) ETV
attr interpolationmode none
attr recordingmode vector(packetBytes)
attr source ieee80211Multicast(packetReceivedFromPeer)
attr title "packets received: multicast, packetBytes"
vector 139 MultiMecHost.mmecHost[1].wlan[0].mac.dcf packetReceivedFromPeerBroadcast:vector(packetBytes) ETV
attr interpolationmode none
attr recordingmode vector(packetBytes)
attr source ieee80211Broadcast(packetReceivedFromPeer)
attr title "packets received: broadcast, packetBytes"
vector 140 MultiMecHost.mmecHost[1].wlan[0].mac.dcf packetReceivedFromPeerWithRetry:vector(packetBytes) ETV
attr interpolationmode none
attr recordingmode vector(packetBytes)
attr source ieee80211Retry(packetReceivedFromPeer)
attr title "packets received: with retry, packetBytes"
vector 141 MultiMecHost.mmecHost[1].wlan[0].mac.dcf packetReceivedFromPeerWithoutRetry:vector(packetBytes) ETV
attr interpolationmode none
attr recordingmode vector(packetBytes)
attr source ieee80211NotRetry(packetReceivedFromPeer)
attr title "packets received: without retry, packetBytes"
vector 142 MultiMecHost.mmecHost[1].wlan[0].mac.dcf packetDrop:vector(packetBytes) ETV
attr interpolationmode none
attr recordingmode vector(packetBytes)
attr source packetDropped
attr title "packet drops, packetBytes"
vector 143 MultiMecHost.mmecHost[1].wlan[0].mac.dcf packetDropNotAddressedToUs:vector(packetBytes) ETV
attr interpolationmode none
attr recordingmode vector(packetBytes)
attr source packetDropReasonIsNotAddressedToUs(packetDropped)
attr title "packet drops: not addressed to us, packetBytes"
vector 144 MultiMecHost.mmecHost[1].wlan[0].mac.dcf packetDropQueueOverflow:vector(packetBytes) ETV
attr interpolationmode none
attr recordingmode vector(packetBytes)
attr source packetDropReasonIsQueueOverflow(packetDropped)
attr title "packet drops: queue overflow, packetBytes"
vector 145 MultiMecHost.mmecHost[1].wlan[0].mac.dcf packetDropRetryLimitReached:vector(packetBytes) ETV
attr interpolationmode none
attr recordingmode vector(packetBytes)
attr source packetDropReasonIsRetryLimitReached(packetDropped)
attr title "packet drops: retry limit reached, packetBytes"
vector 146 MultiMecHost.mmecHost[1].wlan[0].mac.dcf frameSequenceActive:vector ETV
attr autoWarmupFilter false
attr interpolationmode sample-hold
attr recordingmode vector
attr source warmup(count(frameSequenceStarted)-count(frameSequenceFinished))
attr title "frame sequence active"
vector 147 MultiMecHost.mmecHost[1].wlan[0].mac.dcf datarateSelected:vector ETV
attr interpolationmode none
attr recordingmode vector
attr title "datarates selected"
vector 148 MultiMecHost.mmecHost[1].wlan[0].mac.rx nav:vector ETV
attr interpolationmode linear
attr recordingmode vector
attr source navChanged
attr title "network allocation vector"
vector 149 MultiMecHost.mmecHost[1].wlan[0].mac packetSentToUpper:vector(packetBytes) ETV
attr interpolationmode none
attr recordingmode vector(packetBytes)
attr title "packets sent to upper layer, packetBytes"
vector 150 MultiMecHost.mmecHost[1].wlan[0].mac packetSentToLower:vector(packetBytes) ETV
attr interpolationmode none
attr recordingmode vector(packetBytes)
attr title "packets sent to lower layer, packetBytes"
vector 151 MultiMecHost.mmecHost[1].wlan[0].mac packetReceivedFromUpper:vector(packetBytes) ETV
attr interpolationmode none
attr recordingmode vector(packetBytes)
attr title "packets received from upper layer, packetBytes"
vector 152 MultiMecHost.mmecHost[1].wlan[0].mac packetReceivedFromLower:vector(packetBytes) ETV
attr interpolationmode none
attr recordingmode vector(packetBytes)
attr title "packets received from lower layer, packetBytes"
vector 153 MultiMecHost.mmecHost[1].wlan[0].mac packetDrop:vector(packetBytes) ETV
attr interpolationmode none
attr recordingmode vector(packetBytes)
attr source packetDropped
attr title "packet drops, packetBytes"
vector 154 MultiMecHost.mmecHost[1].wlan[0].mac packetDropIncorrectlyReceived:vector(packetBytes) ETV
attr interpolationmode none
attr recordingmode vector(packetBytes)
attr source packetDropReasonIsIncorrectlyReceived(packetDropped)
attr title "packet drops: incorrectly received, packetBytes"
vector 155 MultiMecHost.mmecHost[1].wlan[0].mac packetDropNotAddressedToUs:vector(packetBytes) ETV
attr interpolationmode none
attr recordingmode vector(packetBytes)
attr source packetDropReasonIsNotAddressedToUs(packetDropped)
attr title "packet drops: not addressed to us, packetBytes"
vector 156 MultiMecHost.mmecHost[1].wlan[0].mac packetDropQueueOverflow:vector(packetBytes) ETV
attr interpolationmode none
attr recordingmode vector(packetBytes)
attr source packetDropReasonIsQueueOverflow(packetDropped)
attr title "packet drops: queue overflow, packetBytes"
vector 157 MultiMecHost.mmecHost[1].wlan[0].mac packetDropRetryLimitReached:vector(packetBytes) ETV
attr interpolationmode none
attr recordingmode vector(packetBytes)
attr source packetDropReasonIsRetryLimitReached(packetDropped)
attr title "packet drops: retry limit reached, packetBytes"
vector 158 MultiMetiMecHost.mmecHost[1].wlan[0].mac packetDropDuplicateDetected:vector(packetBytes) ETV
attr interpolationmode none
attr recordingmode vector(packetBytes)
attr source packetDropReasonIsDuplicateDetected(packetDropped)
attr title "packet drops: duplicate detected, packetBytes"
vector 159 MultiMecHost.mmecHost[1].wlan[0].mac packetDropOther:vector(packetBytes) ETV
attr interpolationmode none
attr recordingmode vector(packetBytes)
attr source packetDropReasonIsOther(packetDropped)
attr title "packet drops: other, packetBytes"
vector 160 MultiMecHost.mmecHost[1].wlan[0].radio radioMode:vector ETV
attr interpolationmode sample-hold
attr recordingmode vector
attr source radioModeChanged
attr title "Radio mode"
vector 161 MultiMecHost.mmecHost[1].wlan[0].radio receptionState:vector ETV
attr interpolationmode sample-hold
attr recordingmode vector
attr source receptionStateChanged
attr title "Radio reception state"
vector 162 MultiMecHost.mmecHost[1].wlan[0].radio transmissionState:vector ETV
attr interpolationmode sample-hold
attr recordingmode vector
attr source transmissionStateChanged
attr title "Radio transmission state"
vector 163 MultiMecHost.mmecHost[1].wlan[0].radio radioChannel:vector ETV
attr interpolationmode sample-hold
attr recordingmode vector
attr source radioChannelChanged
attr title "Radio channel"
vector 164 MultiMecHost.mmecHost[1].wlan[0] packetDropInterfaceDown:vector(packetBytes) ETV
attr interpolationmode none
attr recordingmode vector(packetBytes)
attr source packetDropReasonIsInterfaceDown(packetDropped)
attr title "packet drops: interface down, packetBytes"
vector 165 MultiMecHost.mmecHost[1].wlan[0] packetDropNoCarrier:vector(packetBytes) ETV
attr interpolationmode none
attr recordingmode vector(packetBytes)
attr source packetDropReasonIsNoCarrier(packetDropped)
attr title "packet drops: no carrier, packetBytes"
14	42756 9 2 2 1 1 1 0 0 0 0
15	42765 9 2 2 1 1 1 0 0 0 0
16	42774 9 2 2 1 1 1 0 0 0 0
29	42783 45 2 2 1 1 5 0 0 0 0
30	42828 45 2 2 1 1 5 0 0 0 0
41	42873 18 2 2 1 1 2 0 0 0 0
43	42891 18 2 2 1 1 2 0 0 0 0
44	42909 18 2 2 1 1 2 0 0 0 0
46	42927 10 2 2 1 1 1 31 31 31 961
63	42937 18 2 2 1 1 2 0 0 0 0
77	42955 27 2 2 1 1 3 0 2 2 4
78	42982 9 2 2 1 1 1 1 1 1 1
80	42991 9 2 2 1 1 1 0 0 0 0
97	43000 9 2 2 1 1 1 0 0 0 0
98	43009 9 2 2 1 1 1 0 0 0 0
99	43018 9 2 2 1 1 1 0 0 0 0
112	43027 50 2 2 1 1 5 0 0 0 0
113	43077 50 2 2 1 1 5 0 0 0 0
124	43127 20 2 2 1 1 2 0 0 0 0
126	43147 20 2 2 1 1 2 0 0 0 0
127	43167 20 2 2 1 1 2 0 0 0 0
129	43187 11 2 2 1 1 1 31 31 31 961
146	43198 20 2 2 1 1 2 0 0 0 0
160	43218 30 2 2 1 1 3 0 2 2 4
161	43248 10 2 2 1 1 1 1 1 1 1
163	43258 10 2 2 1 1 1 0 0 0 0

etDropNoCarrier:vector(packetBytes) ETV
attr interpolationmode none
attr recordingmode vector(packetBytes)
attr source packetDropReasonIsNoCarrier(packetDropped)
attr title "packet drops: no carrier, packetBytes"
vector 170 MultiMecHost.mmecHost[2].ipv4.ip packetDropAddressResolutionFailed:vector(packetBytes) ETV
attr interpolationmode none
attr recordingmode vector(packetBytes)
attr source packetDropReasonIsAddressResolutionFailed(packetDropped)
attr title "packet drop: address resolution failed, packetBytes"
vector 171 MultiMecHost.mmecHost[2].ipv4.ip packetDropHopLimitReached:vector(packetBytes) ETV
attr interpolationmode none
attr recordingmode vector(packetBytes)
attr source packetDropReasonIsHopLimitReached(packetDropped)
attr title "packet drop: hop limit reached, packetBytes"
vector 172 MultiMecHost.mmecHost[2].ipv4.ip packetDropForwardingDisabled:vector(packetBytes) ETV
attr interpolationmode none
attr recordingmode vector(packetBytes)
attr source packetDropReasonIsForwardingDisabled(packetDropped)
attr title "packet drop: forwarding disabled, packetBytes"
vector 173 MultiMecHost.mmecHost[2].ipv4.ip packetDropNoInterfaceFound:vector(packetBytes) ETV
attr interpolationmode none
attr recordingmode vector(packetBytes)
attr source packetDropReasonIsNoInterfaceFound(packetDropped)
attr title "packet drop: no interface found, packetBytes"
vector 174 MultiMecHost.mmecHost[2].ipv4.ip packetDropNoRouteFound:vector(packetBytes) ETV
attr interpolationmode none
attr recordingmode vector(packetBytes)
attr source packetDropReasonIsNoRouteFound(packetDropped)
attr title "packet drop: no route found, packetBytes"
vector 175 MultiMecHost.mmecHost[2].ipv4.ip packetDropUndefined:vector(packetBytes) ETV
attr interpolationmode none
attr recordingmode vector(packetBytes)
attr source packetDropReasonIsUndefined(packetDropped)
attr title "packet drop: undefined, packetBytes"
vector 176 MultiMecHost.mmecHost[2].ipv4.arp arpRequestSent:vector(packetBytes) ETV
attr recordingmode vector(packetBytes)
attr source arpRequestSent
attr title "ARP request sent, packetBytes"
vector 177 MultiMecHost.mmecHost[2].ipv4.arp arpReplySent:vector(packetBytes) ETV
attr recordingmode vector(packetBytes)
attr source arpReplySent
attr title "ARP replies sent, packetBytes"
vector 178 MultiMecHost.mmecHost[2].udp packetSent:vector(packetBytes) ETV
attr interpolationmode none
attr recordingmode vector(packetBytes)
attr source packetSent
attr title "packets sent, packetBytes"
vector 179 MultiMecHost.mmecHost[2].udp packetReceived:vector(packetBytes) ETV
attr interpolationmode none
attr recordingmode vector(packetBytes)
attr source packetReceived
attr title "packets received, packetBytes"
vector 180 MultiMecHost.mmecHost[2].udp passedUpPk:vector(count) ETV
attr interpolationmode none
attr recordingmode vector(count)
attr source packetSentToUpper
attr title "packets passed up, count"
vector 181 MultiMecHost.mmecHost[2].udp droppedPkWrongPort:vector(count) ETV
attr interpolationmode none
attr recordingmode vector(count)
attr source packetDropReasonIsNoPortFound(packetDropped)
attr title "packets dropped (wrong port), count"
vector 182 MultiMecHost.mmecHost[2].udp droppedPkBadChecksum:vector(count) ETV
attr interpolationmode none
attr recordingmode vector(count)
attr source packetDropReasonIsIncorrectlyReceived(packetDropped)
attr title "packets dropped (checksum error), count"
vector 183 MultiMecHost.mmecHost[2].app[0] packetReceived:vector(packetBytes) ETV
attr interpolationmode none
attr recordingmode vector(packetBytes)
attr source packetReceived
attr title "packets received, packetBytes"
vector 184 MultiMecHost.mmecHost[2].app[0] throughput:vector ETV
attr recordingmode vector
attr source throughput(packetReceived)
attr title throughput
attr unit bps
vector 185 MultiMecHost.mmecHost[2].app[0] packetSent:vector(packetBytes) ETV
attr interpolationmode none
attr recordingmode vector(packetBytes)
attr source packetSent
attr title "packets sent, packetBytes"
vector 186 MultiMecHost.mmecHost[2].app[0] rcvdPkLifetime:vector ETV
attr interpolationmode none
attr recordingmode vector
attr source dataAge(packetReceived)
attr title "received packet lifetime"
attr unit s
vector 187 MultiMecHost.mmecHost[2].app[0] rcvdPkSeqNo:vector ETV
attr interpolationmode none
attr recordingmode vector
attr source appPkSeqNo(packetReceived)
attr title "received packet sequence number"
vector 188 MultiMecHost.mmecHost[2].app[1] packetReceived:vector(packetBytes) ETV
attr interpolationmode none
attr recordingmode vector(packetBytes)
attr source packetReceived
attr title "packets received, packetBytes"
vector 189 MultiMecHost.mmecHost[2].app[1] throughput:vector ETV
attr recordingmode vector
attr source throughput(packetReceived)
attr title throughput
attr unit bps
vector 190 MultiMecHost.mmecHost[2].app[1] endToEndDelay:vector ETV
attr interpolationmode none
attr recordingmode vector
attr source dataAge(packetReceived)
attr title "end-to-end delay"
attr unit s
vector 191 MultiMecHost.mmecHost[2].app[1] rcvdPkSeqNo:vector ETV
attr interpolationmode none
attr recordingmode vector
attr source appPkSeqNo(packetReceived)
attr title "received packet sequence number"
vector 192 MultiMecHost.mmecHost[2].wlan[0].agent sentRequest:vector ETV
attr recordingmode vector
attr title "sent requests"
vector 193 MultiMecHost.mmecHost[2].wlan[0].agent acceptConfirm:vector ETV
attr recordingmode vector
attr title "accepted confirms"
vector 194 MultiMecHost.mmecHost[2].wlan[0].agent dropConfirm:vector ETV
attr recordingmode vector
attr title "dropped confirms"
vector 195 MultiMecHost.mmecHost[2].wlan[0].mac.dcf.channelAccess.pendingQueue queueLength:vector ETV
attr autoWarmupFilter false
attr interpolationmode sample-hold
attr recordingmode vector
attr source "warmup(atomic(constant0(packetPushEnded) + count(packetPushStarted) - count(packetPulled) - count(packetRemoved) - count(packetDropped)))"
attr title "queue length"
attr unit pk
vector 196 MultiMecHost.mmecHost[2].wlan[0].mac.dcf.channelAccess.pendingQueue queueBitLength:vector ETV
attr autoWarmupFilter false
attr interpolationmode sample-hold
attr recordingmode vector
attr source "warmup(atomic(constant0(packetPushEnded) + sum(packetLength(packetPushStarted)) - sum(packetLength(packetPulled)) - sum(packetLength(packetRemoved)) - sum(packetLength(packetDropped))))"
attr title "queue bit length"
attr unit b
vector 197 MultiMecHost.mmecHost[2].wlan[0].mac.dcf.channelAccess.pendingQueue queueingTime:vector ETV
attr interpolationmode none
attr recordingmode vector
attr source queueingTime(packetPulled)
attr title "queueing times"
attr unit s
vector 198 MultiMecHost.mmecHost[2].wlan[0].mac.dcf.channelAccess.pendingQueue incomingPacketLengths:vector ETV
attr interpolationmode none
attr recordingmode vector
attr source packetLength(packetPushStarted)
attr title "incoming packet lengths"
attr unit b
vector 199 MultiMecHost.mmecHost[2].wlan[0].mac.dcf.channelAccess.pendingQueue incomingDataRate:vector ETV
attr interpolationmode linear
attr recordingmode vector
attr source throughput(packetPushStarted)
attr title "incoming datarate"
attr unit bps
vector 200 MultiMecHost.mmecHost[2].wlan[0].mac.dcf.channelAccess.pendingQueue outgoingPacketLengths:vector ETV
attr interpolationmode none
attr recordingmode vector
attr source packetLength(packetPulled)
attr title "outgoing packet lengths"
attr unit b
vector 201 MultiMecHost.mmecHost[2].wlan[0].mac.dcf.channelAccess.pendingQueue outgoingDataRate:vector ETV
attr interpolationmode linear
attr recordingmode vector
attr source throughput(packetPulled)
attr title "outgoing datarate"
attr unit bps
vector 202 MultiMecHost.mmecHost[2].wlan[0].mac.dcf.channelAccess.pendingQueue droppedPacketLengthsQueueOverflow:vector ETV
attr interpolationmode none
attr recordingmode vector
attr source packetLength(packetDropReasonIsQueueOverflow(packetDropped))
attr title "dropped packet lengths: queue overflow"
attr unit b
vector 203 MultiMecHost.mmecHost[2].wlan[0].mac.dcf.channelAccess.pendingQueue flowQueueingTime:vector ETV
attr interpolationmode none
attr recordingmode vector
attr source queueingTime(demuxFlow(packetPulled))
attr title "flow queueing times"
attr unit s
vector 204 MultiMecHost.mmecHost[2].wlan[0].mac.dcf.channelAccess.pendingQueue flowIncomingDataRate:vector ETV
attr interpolationmode linear
attr recordingmode vector
attr source throughput(flowPacketLength(demuxFlow(packetPushStarted)))
attr title "flow specific incoming data rate"
attr unit bps
vector 205 MultiMecHost.mmecHost[2].wlan[0].mac.dcf.channelAccess.pendingQueue flowOutgoingDataRate:vector ETV
attr interpolationmode linear
attr recordingmode vector
attr source throughput(flowPacketLength(demuxFlow(packetPulled)))
attr title "flow specific outgoing data rate"
attr unit bps
vector 206 MultiMecHost.mmecHost[2].wlan[0].mac.dcf.channelAccess.inProgressFrames queueingTime:vector ETV
attr interpolationmode none
attr recordingmode vector
attr source queueingTime(packetDequeued)
attr title "queueing times"
vector 207 MultiMecHost.mmecHost[2].wlan[0].mac.dcf.channelAccess.inProgressFrames queueLength:vector ETV
attr autoWarmupFilter false
attr interpolationmode sample-hold
attr recordingmode vector
attr source "warmup(count(packetEnqueued) - count(packetDequeued))"
attr title "queue length"
vector 208 MultiMecHost.mmecHost[2].wlan[0].mac.dcf.channelAccess.contention backoffPeriodGenerated:vector ETV
attr interpolationmode none
attr recordingmode vector
attr title "backoff periods"
vector 209 MultiMecHost.mmecHost[2].wlan[0].mac.dcf.channelAccess.contention backoffActive:vector ETV
attr autoWarmupFilter false
attr interpolationmode sample-hold
attr recordingmode vector
attr source warmup(count(backoffStarted)-count(backoffStopped))
attr title "backoff active"
vector 210 MultiMecHost.mmecHost[2].wlan[0].mac.dcf.channelAccess.contention stateChanged:vector ETV
attr enum IDLE,DEFER,IFS_AND_BACKOFF
attr interpolationmode none
attr recordingmode vector
attr title "contention state changed"
attr type enum
vector 211 MultiMecHost.mmecHost[2].wlan[0].mac.dcf.recipientMacDataService packetDropDuplicateDetected:vector(packetBytes) ETV
attr interpolationmode none
attr recordingmode vector(packetBytes)
attr source packetDropReasonIsDuplicateDetected(packetDropped)
attr title "packet drops: duplicate detected, packetBytes"
vector 212 MultiMecHost.mmecHost[2].wlan[0].mac.dcf.recoveryProcedure contentionWindowChanged:vector ETV
attr interpolationmode sample-hold
attr recordingmode vector
attr title "contention window"
vector 213 MultiMecHost.mmecHost[2].wlan[0].mac.dcf packetSentToPeer:vector(packetBytes) ETV
attr interpolationmode none
attr recordingmode vector(packetBytes)
attr title "packets sent, packetBytes"
vector 214 MultiMecHost.mmecHost[2].wlan[0].mac.dcf packetSentToPeerUnicast:vector(packetBytes) ETV
attr interpolationmode none
attr recordingmode vector(packetBytes)
attr source ieee80211Unicast(packetSentToPeer)
attr title "packets sent: unicast, packetBytes"
vector 215 MultiMecHost.mmecHost[2].wlan[0].mac.dcf packetSentToPeerMulticast:vector(packetBytes) ETV
attr interpolationmode none
attr recordingmode vector(packetBytes)
attr source ieee80211Multicast(packetSentToPeer)
attr title "packets sent: multicast, packetBytes"
vector 216 MultiMecHost.mmecHost[2].wlan[0].mac.dcf packetSentToPeerBroadcast:vector(packetBytes) ETV
attr interpolationmode none
attr recordingmode vector(packetBytes)
attr source ieee80211Broadcast(packetSentToPeer)
attr title "packets sent: broadcast , packetBytes"
vector 217 MultiMecHost.mmecHost[2].wlan[0].mac.dcf packetSentToPeerWithRetry:vector(packetBytes) ETV
attr interpolationmode none
attr recordingmode vector(packetBytes)
attr source ieee80211Retry(packetSentToPeer)
attr title "packets sent: with retry, packetBytes"
vector 218 MultiMecHost.mmecHost[2].wlan[0].mac.dcf packetSentToPeerWithoutRetry:vector(packetBytes) ETV
attr interpolationmode none
attr recordingmode vector(packetBytes)
attr source ieee80211NotRetry(packetSentToPeer)
attr title "packets sent: without retry, packetBytes"
vector 219 MultiMecHost.mmecHost[2].wlan[0].mac.dcf packetReceivedFromPeer:vector(packetBytes) ETV
attr interpolationmode none
attr recordingmode vector(packetBytes)
attr title "packets received, packetBytes"
vector 220 MultiMecHost.mmecHost[2].wlan[0].mac.dcf packetReceivedFromPeerUnicast:vector(packetBytes) ETV
attr interpolationmode none
attr recordingmode vector(packetBytes)
attr source ieee80211Unicast(packetReceivedFromPeer)
attr title "packets received: unicast, packetBytes"
vector 221 MultiMecHost.mmecHost[2].wlan[0].mac.dcf packetReceivedFromPeerMulticast:vector(packetBytes) ETV
attr interpolationmode none
attr recordingmode vector(packetBytes)
attr source ieee80211Multicast(packetReceivedFromPeer)
attr title "packets received: multicast, packetBytes"
vector 222 MultiMecHost.mmecHost[2].wlan[0].mac.dcf packetReceivedFromPeerBroadcast:vector(packetBytes) ETV
attr interpolationmode none
attr recordingmode vector(packetBytes)
attr source ieee80211Broadcast(packetReceivedFromPeer)
attr title "packets received: broadcast, packetBytes"
vector 223 MultiMecHost.mmecHost[2].wlan[0].mac.dcf packetReceivedFromPeerWithRetry:vector(packetBytes) ETV
attr interpolationmode none
attr recordingmode vector(packetBytes)
attr source ieee80211Retry(packetReceivedFromPeer)
attr title "packets received: with retry, packetBytes"
vector 224 MultiMecHost.mmecHost[2].wlan[0].mac.dcf packetReceivedFromPeerWithoutRetry:vector(packetBytes) ETV
attr interpolationmode none
attr recordingmode vector(packetBytes)
attr source ieee80211NotRetry(packetReceivedFromPeer)
attr title "packets received: without retry, packetBytes"
vector 225 MultiMecHost.mmecHost[2].wlan[0].mac.dcf packetDrop:vector(packetBytes) ETV
attr interpolationmode none
attr recordingmode vector(packetBytes)
attr source packetDropped
attr title "packet drops, packetBytes"
vector 226 MultiMecHost.mmecHost[2].wlan[0].mac.dcf packetDropNotAddressedToUs:vector(packetBytes) ETV
attr interpolationmode none
attr recordingmode vector(packetBytes)
attr source packetDropReasonIsNotAddressedToUs(packetDropped)
attr title "packet drops: not addressed to us, packetBytes"
vector 227 MultiMecHost.mmecHost[2].wlan[0].mac.dcf packetDropQueueOverflow:vector(packetBytes) ETV
attr interpolationmode none
attr recordingmode vector(packetBytes)
attr source packetDropReasonIsQueueOverflow(packetDropped)
attr title "packet drops: queue overflow, packetBytes"
vector 228 MultiMecHost.mmecHost[2].wlan[0].mac.dcf packetDropRetryLimitReached:vector(packetBytes) ETV
attr interpolationmode none
attr recordingmode vector(packetBytes)
attr source packetDropReasonIsRetryLimitReached(packetDropped)
attr title "packet drops: retry limit reached, packetBytes"
vector 229 MultiMecHost.mmecHost[2].wlan[0].mac.dcf frameSequenceActive:vector ETV
attr autoWarmupFilter false
attr interpolationmode sample-hold
attr recordingmode vector
attr source warmup(count(frameSequenceStarted)-count(frameSequenceFinished))
attr title "frame sequence active"
vector 230 MultiMecHost.mmecHost[2].wlan[0].mac.dcf datarateSelected:vector ETV
attr interpolationmode none
attr recordingmode vector
attr title "datarates selected"
vector 231 MultiMecHost.mmecHost[2].wlan[0].mac.rx nav:vector ETV
attr interpolationmode linear
attr recordingmode vector
attr source navChanged
attr title "network allocation vector"
vector 232 MultiMecHost.mmecHost[2].wlan[0].mac packetSentToUpper:vector(packetBytes) ETV
attr interpolationmode none
attr recordingmode vector(packetBytes)
attr title "packets sent to upper layer, packetBytes"
vector 233 MultiMecHost.mmecHost[2].wlan[0].mac packetSentToLower:vector(packetBytes) ETV
attr interpolationmode none
attr recordingmode vector(packetBytes)
attr title "packets sent to lower layer, packetBytes"
vector 234 MultiMecHost.mmecHost[2].wlan[0].mac packetReceivedFromUpper:vector(packetBytes) ETV
attr interpolationmode none
attr recordingmode vector(packetBytes)
attr title "packets received from upper layer, packetBytes"
vector 235 MultiMecHost.mmecHost[2].wlan[0].mac packetReceivedFromLower:vector(packetBytes) ETV
attr interpolationmode none
attr recordingmode vector(packetBytes)
attr title "packets received from lower layer, packetBytes"
vector 236 MultiMecHost.mmecHost[2].wlan[0].mac packetDrop:vector(packetBytes) ETV
attr interpolationmode none
attr recordingmode vector(packetBytes)
attr source packetDropped
attr title "packet drops, packetBytes"
vector 237 MultiMecHost.mmecHost[2].wlan[0].mac packetDropIncorrectlyReceived:vector(packetBytes) ETV
attr interpolationmode none
attr recordingmode vector(packetBytes)
attr source packetDropReasonIsIncorrectlyReceived(packetDropped)
attr title "packet drops: incorrectly received, packetBytes"
vector 238 MultiMecHost.mmecHost[2].wlan[0].mac packetDropNotAddressedToUs:vector(packetBytes) ETV
attr interpolationmode none
attr recordingmode vector(packetBytes)
attr source packetDropReasonIsNotAddressedToUs(packetDropped)
attr title "packet drops: not addressed to us, packetBytes"
vector 239 MultiMecHost.mmecHost[2].wlan[0].mac packetDropQueueOverflow:vector(packetBytes) ETV
attr interpolationmode none
attr recordingmode vector(packetBytes)
attr source packetDropReasonIsQueueOverflow(packetDropped)
attr title "packet drops: queue overflow, packetBytes"
vector 240 MultiMecHost.mmecHost[2].wlan[0].mac packetDropRetryLimitReached:vector(packetBytes) ETV
attr interpolationmode none
attr recordingmode vector(packetBytes)
attr source packetDropReasonIsRetryLimitReached(packetDropped)
attr title "packet drops: retry limit reached, packetBytes"
vector 241 MultiMecHost.mmecHost[2].wlan[0].mac packetDropDuplicateDetected:vector(packetBytes) ETV
attr interpolationmode none
attr recordingmode vector(packetBytes)
attr source packetDropReasonIsDuplicateDetected(packetDropped)
attr title "packet drops: duplicate detected, packetBytes"
vector 242 MultiMecHost.mmecHost[2].wlan[0].mac packetDropOther:vector(packetBytes) ETV
attr interpolationmode none
attr recordingmode vector(packetBytes)
attr source packetDropReasonIsOther(packetDropped)
attr title "packet drops: other, packetBytes"
vector 243 MultiMecHost.mmecHost[2].wlan[0].radio radioMode:vector ETV
attr interpolationmode sample-hold
attr recordingmode vector
attr source radioModeChanged
attr title "Radio mode"
vector 244 MultiMecHost.mmecHost[2].wlan[0].radio receptionState:vector ETV
attr interpolationmode sample-hold
attr recordingmode vector
attr source receptionStateChanged
attr title "Radio reception state"
vector 245 MultiMecHost.mmecHost[2].wlan[0].radio transmissionState:vector ETV
attr interpolationmode sample-hold
attr recordingmode vector
attr source transmissionStateChanged
attr title "Radio transmission state"
vector 246 MultiMecHost.mmecHost[2].wlan[0].radio radioChannel:vector ETV
attr interpolationmode sample-hold
attr recordingmode vector
attr source radioChannelChanged
attr title "Radio channel"
vector 247 MultiMecHost.mmecHost[2].wlan[0] packetDropInterfaceDown:vector(packetBytes) ETV
attr interpolationmode none
attr recordingmode vector(packetBytes)
attr source packetDropReasonIsInterfaceDown(packetDropped)
attr title "packet drops: interface down, packetBytes"
vector 248 MultiMecHost.mmecHost[2].wlan[0] packetDropNoCarrier:vector(packetBytes) ETV
attr interpolationmode none
attr recordingmode vector(packetBytes)
attr source packetDropReasonIsNoCarrier(packetDropped)
attr title "packet drops: no carrier, packetBytes"
vector 249 MultiMecHost.ue[3].lo[0].lo rcvdPkFromHl:vector(packetBytes) ETV
attr interpolationmode none
attr recordingmode vector(packetBytes)
attr source packetReceivedFromUpper
attr title "packets received from higher layer, packetBytes"
vector 250 MultiMecHost.ue[3].lo[0].lo passedUpPk:vector(packetBytes) ETV
attr interpolationmode none
attr recordingmode vector(packetBytes)
attr source packetSentToUpper
attr title "packets passed to higher layer, packetBytes"
vector 251 MultiMecHost.ue[3].lo[0] packetDropInterfaceDown:vector(packetBytes) ETV
attr interpolationmode none
attr recordingmode vector(packetBytes)
attr source packetDropReasonIsInterfaceDown(packetDropped)
attr title "packet drops: interface down, packetBytes"
vector 252 MultiMecHost.ue[3].lo[0] packetDropNoCarrier:vector(packetBytes) ETV
attr interpolationmode none
attr recordingmode vector(packetBytes)
attr source packetDropReasonIsNoCarrier(packetDropped)
attr title "packet drops: no carrier, packetBytes"
vector 253 MultiMecHost.ue[3].ipv4.ip packetDropAddressResolutionFailed:vector(packetBytes) ETV
attr interpolationmode none
attr recordingmode vector(packetBytes)
attr source packetDropReasonIsAddressResolutionFailed(packetDropped)
attr title "packet drop: address resolution failed, packetBytes"
vector 254 MultiMecHost.ue[3].ipv4.ip packetDropHopLimitReached:vector(packetBytes) ETV
attr interpolationmode none
attr recordingmode vector(packetBytes)
attr source packetDropReasonIsHopLimitReached(packetDropped)
attr title "packet drop: hop limit reached, packetBytes"
vector 255 MultiMecHost.ue[3].ipv4.ip packetDropForwardingDisabled:vector(packetBytes) ETV
attr interpolationmode none
attr recordingmode vector(packetBytes)
attr source packetDropReasonIsForwardingDisabled(packetDropped)
attr title "packet drop: forwarding disabled, packetBytes"
vector 256 MultiMecHost.ue[3].ipv4.ip packetDropNoInterfaceFound:vector(packetBytes) ETV
attr interpolationmode none
attr recordingmode vector(packetBytes)
attr source packetDropReasonIsNoInterfaceFound(packetDropped)
attr title "packet drop: no interface found, packetBytes"
vector 257 MultiMecHost.ue[3].ipv4.ip packetDropNoRouteFound:vector(packetBytes) ETV
attr interpolationmode none
attr recordingmode vector(packetBytes)
attr source packetDropReasonIsNoRouteFound(packetDropped)
attr title "packet drop: no route found, packetBytes"
vector 258 MultiMecHost.ue[3].ipv4.ip packetDropUndefined:vector(packetBytes) ETV
attr interpolationmode none
attr recordingmode vector(packetBytes)
attr source packetDropReasonIsUndefined(packetDropped)
attr title "packet drop: undefined, packetBytes"
vector 259 MultiMecHost.ue[3].ipv4.arp arpRequestSent:vector(packetBytes) ETV
attr recordingmode vector(packetBytes)
attr source arpRequestSent
attr title "ARP request sent, packetBytes"
vector 260 MultiMecHost.ue[3].ipv4.arp arpReplySent:vector(packetBytes) ETV
attr recordingmode vector(packetBytes)
attr source arpReplySent
attr title "ARP replies sent, packetBytes"
vector 261 MultiMecHost.ue[3].udp packetSent:vector(packetBytes) ETV
attr interpolationmode none
attr recordingmode vector(packetBytes)
attr source packetSent
attr title "packets sent, packetBytes"
vector 262 MultiMecHost.ue[3].udp packetReceived:vector(packetBytes) ETV
attr interpolationmode none
attr recordingmode vector(packetBytes)
attr source packetReceived
attr title "packets received, packetBytes"
vector 263 MultiMecHost.ue[3].udp passedUpPk:vector(count) ETV
attr interpolationmode none
attr recordingmode vector(count)
attr source packetSentToUpper
attr title "packets passed up, count"
vector 264 MultiMecHost.ue[3].udp droppedPkWrongPort:vector(count) ETV
attr interpolationmode none
attr recordingmode vector(count)
attr source packetDropReasonIsNoPortFound(packetDropped)
attr title "packets dropped (wrong port), count"
vector 265 MultiMecHost.ue[3].udp droppedPkBadChecksum:vector(count) ETV
attr interpolationmode none
attr recordingmode vector(count)
attr source packetDropReasonIsIncorrectlyReceived(packetDropped)
attr title "packets dropped (checksum error), count"
vector 266 MultiMecHost.ue[3].app[0] packetReceived:vector(packetBytes) ETV
attr interpolationmode none
attr recordingmode vector(packetBytes)
attr source packetReceived
attr title "packets received, packetBytes"
vector 267 MultiMecHost.ue[3].app[0] throughput:vector ETV
attr recordingmode vector
attr source throughput(packetReceived)
attr title throughput
attr unit bps
vector 268 MultiMecHost.ue[3].app[0] packetSent:vector(packetBytes) ETV
attr interpolationmode none
attr recordingmode vector(packetBytes)
attr source packetSent
attr title "packets sent, packetBytes"
vector 269 MultiMecHost.ue[3].app[0] rcvdPkLifetime:vector ETV
attr interpolationmode none
attr recordingmode vector
attr source dataAge(packetReceived)
attr title "received packet lifetime"
attr unit s
vector 270 MultiMecHost.ue[3].app[0] rcvdPkSeqNo:vector ETV
attr interpolationmode none
attr recordingmode vector
attr source appPkSeqNo(packetReceived)
attr title "received packet sequence number"
vector 271 MultiMecHost.ue[3].app[1] packetReceived:vector(packetBytes) ETV
attr interpolationmode none
attr recordingmode vector(packetBytes)
attr source packetReceived
attr title "packets received, packetBytes"
vector 272 MultiMecHost.ue[3].app[1] throughput:vector ETV
attr recordingmode vector
attr source throughput(packetReceived)
attr title throughput
attr unit bps
vector 273 MultiMecHost.ue[3].app[1] endToEndDelay:vector ETV
attr interpolationmode none
attr recordingmode vector
attr source dataAge(packetReceived)
attr title "end-to-end delay"
attr unit s
vector 274 MultiMecHost.ue[3].app[1] rcvdPkSeqNo:vector ETV
attr interpolationmode none
attr recordingmode vector
attr source appPkSeqNo(packetReceived)
attr title "received packet sequence number"
vector 275 MultiMecHost.ue[3].wlan[0].agent sentRequest:vector ETV
attr recordingmode vector
attr title "sent requests"
vector 276 MultiMecHost.ue[3].wlan[0].agent acceptConfirm:vector ETV
attr recordingmode vector
attr title "accepted confirms"
vector 277 MultiMecHost.ue[3].wlan[0].agent dropConfirm:vector ETV
attr recordingmode vector
attr title "dropped confirms"
vector 278 MultiMecHost.ue[3].wlan[0].mac.dcf.channelAccess.pendingQueue queueLength:vector ETV
attr autoWarmupFilter false
attr interpolationmode sample-hold
attr recordingmode vector
attr source "warmup(atomic(constant0(packetPushEnded) + count(packetPushStarted) - count(packetPulled) - count(packetRemoved) - count(packetDropped)))"
attr title "queue length"
attr unit pk
vector 279 MultiMecHost.ue[3].wlan[0].mac.dcf.channelAccess.pendingQueue queueBitLength:vector ETV
attr autoWarmupFilter false
attr interpolationmode sample-hold
attr recordingmode vector
attr source "warmup(atomic(constant0(packetPushEnded) + sum(packetLength(packetPushStarted)) - sum(packetLength(packetPulled)) - sum(packetLength(packetRemoved)) - sum(packetLength(packetDropped))))"
attr title "queue bit length"
attr unit b
vector 280 MultiMecHost.ue[3].wlan[0].mac.dcf.channelAccess.pendingQueue queueingTime:vector ETV
attr interpolationmode none
attr recordingmode vector
attr source queueingTime(packetPulled)
attr title "queueing times"
attr unit s
vector 281 MultiMecHost.ue[3].wlan[0].mac.dcf.channelAccess.pendingQueue incomingPacketLengths:vector ETV
attr interpolationmode none
attr recordingmode vector
attr source packetLength(packetPushStarted)
attr title "incoming packet lengths"
attr unit b
vector 282 MultiMecHost.ue[3].wlan[0].mac.dcf.channelAccess.pendingQueue incomingDataRate:vector ETV
attr interpolationmode linear
attr recordingmode vector
attr source throughput(packetPushStarted)
attr title "incoming datarate"
attr unit bps
vector 283 MultiMecHost.ue[3].wlan[0].mac.dcf.channelAccess.pendingQueue outgoingPacketLengths:vector ETV
attr interpolationmode none
attr recordingmode vector
attr source packetLength(packetPulled)
attr title "outgoing packet lengths"
attr unit b
vector 284 MultiMecHost.ue[3].wlan[0].mac.dcf.channelAccess.pendingQueue outgoingDataRate:vector ETV
attr interpolationmode linear
attr recordingmode vector
attr source throughput(packetPulled)
attr title "outgoing datarate"
attr unit bps
vector 285 MultiMecHost.ue[3].wlan[0].mac.dcf.channelAccess.pendingQueue droppedPacketLengthsQueueOverflow:vector ETV
attr interpolationmode none
attr recordingmode vector
attr source packetLength(packetDropReasonIsQueueOverflow(packetDropped))
attr title "dropped packet lengths: queue overflow"
attr unit b
vector 286 MultiMecHost.ue[3].wlan[0].mac.dcf.channelAccess.pendingQueue flowQueueingTime:vector ETV
attr interpolationmode none
attr recordingmode vector
attr source queueingTime(demuxFlow(packetPulled))
attr title "flow queueing times"
attr unit s
vector 287 MultiMecHost.ue[3].wlan[0].mac.dcf.channelAccess.pendingQueue flowIncomingDataRate:vector ETV
attr interpolationmode linear
attr recordingmode vector
attr source throughput(flowPacketLength(demuxFlow(packetPushStarted)))
attr title "flow specific incoming data rate"
attr unit bps
vector 288 MultiMecHost.ue[3].wlan[0].mac.dcf.channelAccess.pendingQueue flowOutgoingDataRate:vector ETV
attr interpolationmode linear
attr recordingmode vector
attr source throughput(flowPacketLength(demuxFlow(packetPulled)))
attr title "flow specific outgoing data rate"
attr unit bps
vector 289 MultiMecHost.ue[3].wlan[0].mac.dcf.channelAccess.inProgressFrames queueingTime:vector ETV
attr interpolationmode none
attr recordingmode vector
attr source queueingTime(packetDequeued)
attr title "queueing times"
vector 290 MultiMecHost.ue[3].wlan[0].mac.dcf.channelAccess.inProgressFrames queueLength:vector ETV
attr autoWarmupFilter false
attr interpolationmode sample-hold
attr recordingmode vector
attr source "warmup(count(packetEnqueued) - count(packetDequeued))"
attr title "queue length"
vector 291 MultiMecHost.ue[3].wlan[0].mac.dcf.channelAccess.contention backoffPeriodGenerated:vector ETV
attr interpolationmode none
attr recordingmode vector
attr title "backoff periods"
vector 292 MultiMecHost.ue[3].wlan[0].mac.dcf.channelAccess.contention backoffActive:vector ETV
attr autoWarmupFilter false
attr interpolationmode sample-hold
attr recordingmode vector
attr source warmup(count(backoffStarted)-count(backoffStopped))
attr title "backoff active"
vector 293 MultiMecHost.ue[3].wlan[0].mac.dcf.channelAccess.contention stateChanged:vector ETV
attr enum IDLE,DEFER,IFS_AND_BACKOFF
attr interpolationmode none
attr recordingmode vector
attr title "contention state changed"
attr type enum
vector 294 MultiMecHost.ue[3].wlan[0].mac.dcf.recipientMacDataService packetDropDuplicateDetected:vector(packetBytes) ETV
attr interpolationmode none
attr recordingmode vector(packetBytes)
attr source packetDropReasonIsDuplicateDetected(packetDropped)
attr title "packet drops: duplicate detected, packetBytes"
vector 295 MultiMecHost.ue[3].wlan[0].mac.dcf.recoveryProcedure contentionWindowChanged:vector ETV
attr interpolationmode sample-hold
attr recordingmode vector
attr title "contention window"
vector 296 MultiMecHost.ue[3].wlan[0].mac.dcf packetSentToPeer:vector(packetBytes) ETV
attr interpolationmode none
attr recordingmode vector(packetBytes)
attr title "packets sent, packetBytes"
vector 297 MultiMecHost.ue[3].wlan[0].mac.dcf packetSentToPeerUnicast:vector(packetBytes) ETV
attr interpolationmode none
attr recordingmode vector(packetBytes)
attr source ieee80211Unicast(packetSentToPeer)
attr title "packets sent: unicast, packetBytes"
vector 298 MultiMecHost.ue[3].wlan[0].mac.dcf packetSentToPeerMulticast:vector(packetBytes) ETV
attr interpolationmode none
attr recordingmode vector(packetBytes)
attr source ieee80211Multicast(packetSentToPeer)
attr title "packets sent: multicast, packetBytes"
vector 299 MultiMecHost.ue[3].wlan[0].mac.dcf packetSentToPeerBroadcast:vector(packetBytes) ETV
attr interpolationmode none
attr recordingmode vector(packetBytes)
attr source ieee80211Broadcast(packetSentToPeer)
attr title "packets sent: broadcast , packetBytes"
vector 300 MultiMecHost.ue[3].wlan[0].mac.dcf packetSentToPeerWithRetry:vector(packetBytes) ETV
attr interpolationmode none
attr recordingmode vector(packetBytes)
attr source ieee80211Retry(packetSentToPeer)
attr title "packets sent: with retry, packetBytes"
vector 301 MultiMecHost.ue[3].wlan[0].mac.dcf packetSentToPeerWithoutRetry:vector(packetBytes) ETV
attr interpolationmode none
attr recordingmode vector(packetBytes)
attr source ieee80211NotRetry(packetSentToPeer)
attr title "packets sent: without retry, packetBytes"
vector 302 MultiMecHost.ue[3].wlan[0].mac.dcf packetReceivedFromPeer:vector(packetBytes) ETV
attr interpolationmode none
attr recordingmode vector(packetBytes)
attr title "packets received, packetBytes"
vector 303 MultiMecHost.ue[3].wlan[0].mac.dcf packetReceivedFromPeerUnicast:vector(packetBytes) ETV
attr interpolationmode none
attr recordingmode vector(packetBytes)
attr source ieee80211Unicast(packetReceivedFromPeer)
attr title "packets received: unicast, packetBytes"
vector 304 MultiMecHost.ue[3].wlan[0].mac.dcf packetReceivedFromPeerMulticast:vector(packetBytes) ETV
attr interpolationmode none
attr recordingmode vector(packetBytes)
attr source ieee80211Multicast(packetReceivedFromPeer)
attr title "packets received: multicast, packetBytes"
vector 305 MultiMecHost.ue[3].wlan[0].mac.dcf packetReceivedFromPeerBroadcast:vector(packetBytes) ETV
attr interpolationmode none
attr recordingmode vector(packetBytes)
attr source ieee80211Broadcast(packetReceivedFromPeer)
attr title "packets received: broadcast, packetBytes"
vector 306 MultiMecHost.ue[3].wlan[0].mac.dcf packetReceivedFromPeerWithRetry:vector(packetBytes) ETV
attr interpolationmode none
attr recordingmode vector(packetBytes)
attr source ieee80211Retry(packetReceivedFromPeer)
attr title "packets received: with retry, packetBytes"
vector 307 MultiMecHost.ue[3].wlan[0].mac.dcf packetReceivedFromPeerWithoutRetry:vector(packetBytes) ETV
attr interpolationmode none
attr recordingmode vector(packetBytes)
attr source ieee80211NotRetry(packetReceivedFromPeer)
attr title "packets received: without retry, packetBytes"
vector 308 MultiMecHost.ue[3].wlan[0].mac.dcf packetDrop:vector(packetBytes) ETV
attr interpolationmode none
attr recordingmode vector(packetBytes)
attr source packetDropped
attr title "packet drops, packetBytes"
vector 309 MultiMecHost.ue[3].wlan[0].mac.dcf packetDropNotAddressedToUs:vector(packetBytes) ETV
attr interpolationmode none
attr recordingmode vector(packetBytes)
attr source packetDropReasonIsNotAddressedToUs(packetDropped)
attr title "packet drops: not addressed to us, packetBytes"
vector 310 MultiMecHost.ue[3].wlan[0].mac.dcf packetDropQueueOverflow:vector(packetBytes) ETV
attr interpolationmode none
attr recordingmode vector(packetBytes)
attr source packetDropReasonIsQueueOverflow(packetDropped)
attr title "packet drops: queue overflow, packetBytes"
vector 311 MultiMecHost.ue[3].wlan[0].mac.dcf packetDropRetryLimitReached:vector(packetBytes) ETV
attr interpolationmode none
attr recordingmode vector(packetBytes)
attr source packetDropReasonIsRetryLimitReached(packetDropped)
attr title "packet drops: retry limit reached, packetBytes"
vector 312 MultiMecHost.ue[3].wlan[0].mac.dcf frameSequenceActive:vector ETV
attr autoWarmupFilter false
attr interpolationmode sample-hold
attr recordingmode vector
attr source warmup(count(frameSequenceStarted)-count(frameSequenceFinished))
attr title "frame sequence active"
vector 313 MultiMecHost.ue[3].wlan[0].mac.dcf datarateSelected:vector ETV
attr interpolationmode none
attr recordingmode vector
attr title "datarates selected"
vector 314 MultiMecHost.ue[3].wlan[0].mac.rx nav:vector ETV
attr interpolationmode linear
attr recordingmode vector
attr source navChanged
attr title "network allocation vector"
vector 315 MultiMecHost.ue[3].wlan[0].mac packetSentToUpper:vector(packetBytes) ETV
attr interpolationmode none
attr recordingmode vector(packetBytes)
attr title "packets sent to upper layer, packetBytes"
vector 316 MultiMecHost.ue[3].wlan[0].mac packetSentToLower:vector(packetBytes) ETV
attr interpolationmode none
attr recordingmode vector(packetBytes)
attr title "packets sent to lower layer, packetBytes"
vector 317 MultiMecHost.ue[3].wlan[0].mac packetReceivedFromUpper:vector(packetBytes) ETV
attr interpolationmode none
attr recordingmode vector(packetBytes)
attr title "packets received from upper layer, packetBytes"
vector 318 MultiMecHost.ue[3].wlan[0].mac packetReceivedFromLower:vector(packetBytes) ETV
attr interpolationmode none
attr recordingmode vector(packetBytes)
attr title "packets received from lower layer, packetBytes"
vector 319 MultiMecHost.ue[3].wlan[0].mac packetDrop:vector(packetBytes) ETV
attr interpolationmode none
attr recordingmode vector(packetBytes)
[...]
attr interpolationmode none
attr recordingmode vector(packetBytes)
attr source packetDropReasonIsQueueOverflow(packetDropped)
attr title "packet drops: queue overflow, packetBytes"
vector 572 MultiMecHost.ue[6].wlan[0].mac packetDropRetryLimitReached:vector(packetBytes) ETV
attr interpolationmode none
attr recordingmode vector(packetBytes)
attr source packetDropReasonIsRetryLimitReached(packetDropped)
attr title "packet drops: retry limit reached, packetBytes"
vector 573 MultiMecHost.ue[6].wlan[0].mac packetDropDuplicateDetected:vector(packetBytes) ETV
attr interpolationmode none
attr recordingmode vector(packetBytes)
attr source packetDropReasonIsDuplicateDetected(packetDropped)
attr title "packet drops: duplicate detected, packetBytes"
vector 574 MultiMecHost.ue[6].wlan[0].mac packetDropOther:vector(packetBytes) ETV
attr interpolationmode none
attr recordingmode vector(packetBytes)
attr source packetDropReasonIsOther(packetDropped)
attr title "packet drops: other, packetBytes"
vector 575 MultiMecHost.ue[6].wlan[0].radio radioMode:vector ETV
attr interpolationmode sample-hold
attr recordingmode vector
attr source radioModeChanged
attr title "Radio mode"
vector 576 MultiMecHost.ue[6].wlan[0].radio receptionState:vector ETV
attr interpolationmode sample-hold
attr recordingmode vector
attr source receptionStateChanged
attr title "Radio reception state"
vector 577 MultiMecHost.ue[6].wlan[0].radio transmissionState:vector ETV
attr interpolationmode sample-hold
attr recordingmode vector
attr source transmissionStateChanged
attr title "Radio transmission state"
vector 578 MultiMecHost.ue[6].wlan[0].radio radioChannel:vector ETV
attr interpolationmode sample-hold
attr recordingmode vector
attr source radioChannelChanged
attr title "Radio channel"
vector 579 MultiMecHost.ue[6].wlan[0] packetDropInterfaceDown:vector(packetBytes) ETV
attr interpolationmode none
attr recordingmode vector(packetBytes)
attr source packetDropReasonIsInterfaceDown(packetDropped)
attr title "packet drops: interface down, packetBytes"
vector 580 MultiMecHost.ue[6].wlan[0] packetDropNoCarrier:vector(packetBytes) ETV
attr interpolationmode none
attr recordingmode vector(packetBytes)
attr source packetDropReasonIsNoCarrier(packetDropped)
attr title "packet drops: no carrier, packetBytes"
4	143471 147 324 4177 4 13 12 38 38 456 17328
10	143618 166 15 4196 1 13 13 28 28 364 10192
12	143784 165 8 4186 1 13 13 18 18 234 4212
14	143949 9 2 2 1 1 1 0 0 0 0
15	143958 9 2 2 1 1 1 0 0 0 0
16	143967 9 2 2 1 1 1 0 0 0 0
19	143976 165 3 4172 1 13 13 10 10 130 1300
26	144141 791 21 4568 1.164644050691 13.564644050691 32 1 1 32 32
28	144932 768 58 4568 1.564644050691 13.564644050691 31 1 1 31 31
29	145700 1631 2 4597 1 13.664644050691 69 0 1 32 32
30	147331 1695 2 4597 1 13.664644050691 69 0 256 8192 2097152
31	149026 793 32 4597 1.264644050691 13.664644050691 32 0 0 0 0
32	149819 857 30 4595 1.264644050691 13.664644050691 32 256 256 8192 2097152
33	150676 1806 30 4595 1.1 13.6 126 0 2560 79360 203161600
34	152482 857 32 4597 1.264644050691 13.664644050691 32 256 256 8192 2097152
35	153339 1806 32 4597 1.1 13.6 126 0 2560 79360 203161600
40	155145 985 36 4606 1.264682050691 13.664682050691 32 3.8e-05 3.8e-05 0.001216 4.6208e-08
41	156130 1604 2 4606 1 13.664682050691 66 0 1 32 32
42	157734 809 30 4595 1.264644050691 13.664644050691 32 0 31 365 6621
43	158543 1604 2 4596 1 13.664644050691 66 0 1 32 32
44	160147 17442 2 4831 1 13.955938448132 698 0 2 128 256
46	177589 10 2 2 1 1 1 31 31 31 961
47	177599 825 36 4606 1.264682050691 13.664682050691 32 32 32 1024 32768
49	178424 825 36 4606 1.264682050691 13.664682050691 32 32 32 1024 32768
50	179249 825 36 4606 1.264682050691 13.664682050691 32 32 32 1024 32768
52	180074 825 36 4606 1.264682050691 13.664682050691 32 32 32 1024 32768
53	180899 2880 52 4832 1.277892274283 13.955938448132 110 32 32 3520 112640
55	183779 2880 52 4832 1.277892274283 13.955938448132 110 32 32 3520 112640
56	186659 2880 52 4832 1.277892274283 13.955938448132 110 32 32 3520 112640
58	189539 2880 52 4832 1.277892274283 13.955938448132 110 32 32 3520 112640
63	192419 1604 2 4606 1 13.664682050691 66 0 1 32 32
64	194023 1017 32 4597 1.264644050691 13.664644050691 32 24000000 24000000 768000000 1.8432e+16
67	195040 825 32 4597 1.264644050691 13.664644050691 32 32 32 1024 32768
68	195865 166 19 4210 1 13 13 36 36 468 16848
69	196031 2880 52 4832 1.277892274283 13.955938448132 110 32 32 3520 112640
70	198911 166 19 4210 1 13 13 36 36 468 16848
76	199077 166 19 4210 1 13 13 36 36 468 16848
77	199243 1613 2 4607 1 13.664682050691 67 0 3 162 420
78	200856 7135 2 4831 1 13.955938448132 285 0 3 473 1133
79	207991 3172 33 4607 1.264644050691 13.664682050691 128 0 2 128 192
80	211163 800 2 4571 1 13.564644050691 33 0 0 0 0
87	211963 159 325 4178 4 13 12 38 38 456 17328
93	212122 166 16 4197 1 13 13 28 28 364 10192
95	212288 166 12 4187 1 13 13 18 18 234 4212
97	212454 9 2 2 1 1 1 0 0 0 0
98	212463 9 2 2 1 1 1 0 0 0 0
99	212472 9 2 2 1 1 1 0 0 0 0
102	212481 178 5 4173 1 13 13 10 10 130 1300
109	212659 824 25 4574 1.177853384917 13.577853384917 32 1 1 32 32
111	213483 800 63 4574 1.577853384917 13.577853384917 31 1 1 31 31
112	214283 1700 2 4630 1 13.677853384917 69 0 1 32 32
113	215983 1764 2 4630 1 13.677853384917 69 0 256 8192 2097152
114	217747 825 45 4630 1.277853384917 13.677853384917 32 0 0 0 0
115	218572 889 43 4628 1.277853384917 13.677853384917 32 256 256 8192 2097152
116	219461 1932 43 4628 1.1 13.6 126 0 2560 79360 203161600
117	221393 889 45 4630 1.277853384917 13.677853384917 32 256 256 8192 2097152
118	222282 1932 45 4630 1.1 13.6 126 0 2560 79360 203161600
123	224214 1017 49 4639 1.277891384917 13.677891384917 32 3.8e-05 3.8e-05 0.001216 4.6208e-08
124	225231 1670 2 4639 1 13.677891384917 66 0 1 32 32
125	226901 845 43 4628 1.277853384917 13.677853384917 32 0 31 487 10573
126	227746 1670 2 4629 1 13.677853384917 66 0 1 32 32
127	229416 18092 2 4828 1 13.955937991106 698 0 2 128 256
129	247508 11 2 2 1 1 1 31 31 31 961
130	247519 857 49 4639 1.277891384917 13.677891384917 32 32 32 1024 32768
132	248376 857 49 4639 1.277891384917 13.677891384917 32 32 32 1024 32768
133	249233 857 49 4639 1.277891384917 13.677891384917 32 32 32 1024 32768
135	250090 857 49 4639 1.277891384917 13.677891384917 32 32 32 1024 32768
136	250947 2978 39 4829 1.264682940057 13.955937991106 110 32 32 3520 112640
138	253925 2978 39 4829 1.264682940057 13.955937991106 110 32 32 3520 112640
139	256903 2978 39 4829 1.264682940057 13.955937991106 110 32 32 3520 112640
141	259881 2978 39 4829 1.264682940057 13.955937991106 110 32 32 3520 112640
146	262859 1670 2 4639 1 13.677891384917 66 0 1 32 32
147	264529 1049 45 4630 1.277853384917 13.677853384917 32 24000000 24000000 768000000 1.8432e+16
150	265578 857 45 4630 1.277853384917 13.677853384917 32 32 32 1024 32768
151	266435 179 20 4211 1 13 13 36 36 468 16848
152	266614 2978 39 4829 1.264682940057 13.955937991106 110 32 32 3520 112640
153	269592 179 20 4211 1 13 13 36 36 468 16848
159	269771 179 20 4211 1 13 13 36 36 468 16848
160	269950 1680 2 4640 1 13.677891384917 67 0 3 162 420
161	271630 7396 2 4828 1 13.955937991106 285 0 3 473 1133
162	279026 3300 46 4640 1.277853384917 13.677891384917 128 0 2 128 192
163	282326 834 2 4577 1 13.577853384917 33 0 0 0 0
170	283160 132 1047 4179 7 13 9 38 38 342 12996
176	283292 141 336 4198 4 13 10 28 28 280 7840
178	283433 141 331 4188 4 13 10 18 18 180 3240
180	283574 12 321 321 4 4 1 0 0 0 0
181	283586 12 321 321 4 4 1 0 0 0 0
182	283598 12 321 321 4 4 1 0 0 0 0
185	283610 141 326 4174 4 13 10 10 10 100 1000
192	283751 627 377 4584 4.15866847646 13.60866847646 25 1 1 25 25
194	284378 603 411 4584 4.40866847646 13.60866847646 24 1 1 24 24
195	284981 1316 321 4697 4 13.70866847646 55 0 1 25 25
196	286297 1366 321 4697 4 13.70866847646 55 0 256 6400 1638400
197	287663 628 386 4697 4.25866847646 13.70866847646 25 0 0 0 0
198	288291 678 384 4695 4.25866847646 13.70866847646 25 256 256 6400 1638400
199	288969 1522 384 4695 4.1 13.7 97 0 2560 61440 157286400
200	290491 678 386 4697 4.25866847646 13.70866847646 25 256 256 6400 1638400
201	291169 1522 386 4697 4.1 13.7 97 0 2560 61440 157286400
206	292691 778 391 4706 4.25870647646 13.70870647646 25 3.8e-05 3.8e-05 0.00095 3.61e-08
207	293469 1280 321 4706 4 13.70870647646 52 0 1 25 25
208	294749 644 384 4695 4.25866847646 13.70866847646 25 1 31 335 6101
209	295393 1280 321 4696 4 13.70866847646 52 0 1 25 25
210	296673 15832 321 4825 4 13.955937835427 614 0 2 100 200
212	312505 13 321 321 4 4 1 31 31 31 961
213	312518 653 391 4706 4.25870647646 13.70870647646 25 32 32 800 25600
215	313171 653 391 4706 4.25870647646 13.70870647646 25 32 32 800 25600
216	313824 653 391 4706 4.25870647646 13.70870647646 25 32 32 800 25600
218	314477 653 391 4706 4.25870647646 13.70870647646 25 32 32 800 25600
219	315130 2799 357 4826 4.064682931842 13.955937835427 103 32 32 3296 105472
221	317929 2799 357 4826 4.064682931842 13.955937835427 103 32 32 3296 105472
222	320728 2799 357 4826 4.064682931842 13.955937835427 103 32 32 3296 105472
224	323527 2799 357 4826 4.064682931842 13.955937835427 103 32 32 3296 105472
229	326326 1280 321 4706 4 13.70870647646 52 0 1 25 25
230	327606 803 386 4697 4.25866847646 13.70866847646 25 24000000 24000000 600000000 1.44e+16
233	328409 653 386 4697 4.25866847646 13.70866847646 25 32 32 800 25600
234	329062 141 342 4212 4 13 10 36 36 360 12960
235	329203 2799 357 4826 4.064682931842 13.955937835427 103 32 32 3296 105472
236	332002 141 342 4212 4 13 10 36 36 360 12960
242	332143 141 342 4212 4 13 10 36 36 360 12960
243	332284 1292 321 4707 4 13.70870647646 53 0 3 127 329
244	333576 6660 321 4825 4 13.955937835427 257 0 3 438 1056
245	340236 2512 387 4707 4.25866847646 13.70870647646 100 0 2 100 150
246	342748 639 321 4587 4 13.60866847646 26 0 0 0 0
253	343387 87 1885 3411 9 12 6 38 38 228 8664
259	343474 115 730 4185 6 13 8 28 28 224 6272
261	343589 115 721 4189 6 13 8 18 18 144 2592
263	343704 12 705 705 6 6 1 0 0 0 0
264	343716 12 705 705 6 6 1 0 0 0 0
265	343728 12 705 705 6 6 1 0 0 0 0
268	343740 115 712 4175 6 13 8 10 10 80 800
275	343855 506 801 4579 6.13844380884 13.58844380884 20 1 1 20 20
277	344361 482 840 4579 6.38844380884 13.58844380884 19 1 1 19 19
278	344843 1076 705 4663 6 13.68844380884 45 0 1 20 20
279	345919 1116 705 4663 6 13.68844380884 45 0 256 5120 1310720
280	347035 508 810 4663 6.23844380884 13.68844380884 20 0 0 0 0
281	347543 548 808 4661 6.23844380884 13.68844380884 20 256 256 5120 1310720
282	348091 1216 808 4661 6.1 13.6 76 0 2560 48640 124518400
283	349307 548 810 4663 6.23844380884 13.68844380884 20 256 256 5120 1310720
284	349855 1216 810 4663 6.1 13.6 76 0 2560 48640 124518400
289	351071 628 816 4672 6.23848180884 13.68848180884 20 3.8e-05 3.8e-05 0.00076 2.888e-08
290	351699 1040 705 4672 6 13.68848180884 42 0 1 20 20
291	352739 520 808 4661 6.23844380884 13.68844380884 20 0 24 251 4549
292	353259 1040 705 4662 6 13.68844380884 42 0 1 20 20
293	354299 13868 705 4834 6 13.955938503747 534 0 2 80 160
295	368167 13 705 705 6 6 1 31 31 31 961
296	368180 528 816 4672 6.23848180884 13.68848180884 20 32 32 640 20480
298	368708 528 816 4672 6.23848180884 13.68848180884 20 32 32 640 20480
299	369236 528 816 4672 6.23848180884 13.68848180884 20 32 32 640 20480
301	369764 528 816 4672 6.23848180884 13.68848180884 20 32 32 640 20480
302	370292 2538 750 4835 6.064682078765 13.955938503747 93 32 32 2976 95232
304	372830 2538 750 4835 6.064682078765 13.955938503747 93 32 32 2976 95232
305	375368 2538 750 4835 6.064682078765 13.955938503747 93 32 32 2976 95232
307	377906 2538 750 4835 6.064682078765 13.955938503747 93 32 32 2976 95232
312	380444 1040 705 4672 6 13.68848180884 42 0 1 20 20
313	381484 648 810 4663 6.23844380884 13.68844380884 20 24000000 24000000 480000000 1.152e+16
316	382132 528 810 4663 6.23844380884 13.68844380884 20 32 32 640 20480
317	382660 115 732 4205 6 13 8 36 36 288 10368
318	382775 2538 750 4835 6.064682078765 13.955938503747 93 32 32 2976 95232
319	385313 115 732 4205 6 13 8 36 36 288 10368
325	385428 115 732 4205 6 13 8 36 36 288 10368
326	385543 1052 705 4673 6 13.68848180884 43 0 3 102 264
327	386595 5918 705 4834 6 13.955938503747 227 0 3 393 951
328	392513 2032 811 4673 6.23844380884 13.68848180884 80 0 2 80 120
329	394545 518 705 4582 6 13.58844380884 21 0 0 0 0
336	395063 90 2279 4180 10 13 6 38 38 228 8664
342	395153 102 1066 4200 7 13 7 28 28 196 5488
344	395255 102 1058 4190 7 13 7 18 18 126 2268
346	395357 13 1041 1041 7 7 1 0 0 0 0
347	395370 13 1041 1041 7 7 1 0 0 0 0
348	395383 13 1041 1041 7 7 1 0 0 0 0
351	395396 102 1050 4176 7 13 7 10 10 70 700
358	395498 478 1078 4769 7.055899703363 13.855899703363 18 1 1 18 18
360	395976 452 1233 4769 7.455899703363 13.855899703363 17 1 1 17 17
361	396428 1021 1041 4811 7 13.955899703363 41 0 1 18 18
362	397449 1057 1041 4811 7 13.955899703363 41 0 256 4608 1179648
363	398506 478 1086 4811 7.155899703363 13.955899703363 18 0 0 0 0
364	398984 514 1084 4809 7.155899703363 13.955899703363 18 256 256 4608 1179648
365	399498 1114 1084 4809 7.1 13.9 69 0 2560 43520 111411200
366	400612 514 1086 4811 7.155899703363 13.955899703363 18 256 256 4608 1179648
367	401126 1114 1086 4811 7.1 13.9 69 0 2560 43520 111411200
372	402240 586 1093 4820 7.155937703363 13.955937703363 18 3.8e-05 3.8e-05 0.000684 2.5992e-08
373	402826 982 1041 4820 7 13.955937703363 38 0 1 18 18
374	403808 489 1084 4809 7.155899703363 13.955899703363 18 0 31 238 4724
375	404297 982 1041 4810 7 13.955899703363 38 0 1 18 18
376	405279 12630 1041 4821 7 13.955937703363 478 0 2 72 144
378	417909 14 1041 1041 7 7 1 31 31 31 961
379	417923 496 1093 4820 7.155937703363 13.955937703363 18 32 32 576 18432
381	418419 496 1093 4820 7.155937703363 13.955937703363 18 32 32 576 18432
382	418915 496 1093 4820 7.155937703363 13.955937703363 18 32 32 576 18432
384	419411 496 1093 4820 7.155937703363 13.955937703363 18 32 32 576 18432
385	419907 2278 1150 4802 7.264682916554 13.904110321402 83 32 32 2656 84992
387	422185 2278 1150 4802 7.264682916554 13.904110321402 83 32 32 2656 84992
388	424463 2278 1150 4802 7.264682916554 13.904110321402 83 32 32 2656 84992
390	426741 2278 1150 4802 7.264682916554 13.904110321402 83 32 32 2656 84992
395	429019 982 1041 4820 7 13.955937703363 38 0 1 18 18
396	430001 604 1086 4811 7.155899703363 13.955899703363 18 24000000 24000000 432000000 1.0368e+16
399	430605 496 1086 4811 7.155899703363 13.955899703363 18 32 32 576 18432
400	431101 102 1074 4213 7 13 7 36 36 252 9072
401	431203 2278 1150 4802 7.264682916554 13.904110321402 83 32 32 2656 84992
402	433481 102 1074 4213 7 13 7 36 36 252 9072
408	433583 102 1074 4213 7 13 7 36 36 252 9072
409	433685 995 1041 4821 7 13.955937703363 39 0 3 92 238
410	434680 5359 1041 4821 7 13.955937703363 203 0 3 351 849
411	440039 1912 1087 4821 7.155899703363 13.955937703363 72 0 2 72 108
412	441951 491 1041 4772 7 13.855899703363 19 0 0 0 0
425	442442 45 2760 4183 11 13 3 28 28 84 2352
427	442487 45 2743 4191 11 13 3 18 18 54 972
429	442532 14 2717 2717 11 11 1 0 0 0 0
430	442546 14 2717 2717 11 11 1 0 0 0 0
431	442560 14 2717 2717 11 11 1 0 0 0 0
434	442574 45 2728 4181 11 13 3 10 10 30 300
441	442619 189 2865 4589 11.246297969273 13.646297969273 7 1 1 7 7
443	442808 162 3138 4589 11.646297969273 13.646297969273 6 1 1 6 6
444	442970 448 2717 4730 11 13.746297969273 19 0 1 7 7
445	443418 462 2717 4730 11 13.746297969273 19 0 256 1792 458752
446	443880 189 3006 4730 11.346297969273 13.746297969273 7 0 0 0 0
447	444069 203 3004 4728 11.346297969273 13.746297969273 7 256 256 1792 458752
448	444272 446 3004 4728 11.1 13.7 27 0 2560 15360 39321600
449	444718 203 3006 4730 11.346297969273 13.746297969273 7 256 256 1792 458752
450	444921 446 3006 4730 11.1 13.7 27 0 2560 15360 39321600
455	445367 231 3015 4739 11.346335969273 13.746335969273 7 3.8e-05 3.8e-05 0.000266 1.0108e-08
456	445598 406 2717 4739 11 13.746335969273 16 0 1 7 7
457	446004 194 3004 4728 11.346297969273 13.746297969273 7 3 30 125 2887
458	446198 406 2717 4729 11 13.746297969273 16 0 1 7 7
459	446604 6272 2717 4822 11 13.955937774295 234 0 2 28 56
461	452876 15 2717 2717 11 11 1 31 31 31 961
462	452891 196 3015 4739 11.346335969273 13.746335969273 7 32 32 224 7168
464	453087 196 3015 4739 11.346335969273 13.746335969273 7 32 32 224 7168
465	453283 196 3015 4739 11.346335969273 13.746335969273 7 32 32 224 7168
467	453479 196 3015 4739 11.346335969273 13.746335969273 7 32 32 224 7168
468	453675 1227 2809 4823 11.104110384333 13.955937774295 44 32 32 1408 45056
470	454902 1227 2809 4823 11.104110384333 13.955937774295 44 32 32 1408 45056
471	456129 1227 2809 4823 11.104110384333 13.955937774295 44 32 32 1408 45056
473	457356 1227 2809 4823 11.104110384333 13.955937774295 44 32 32 1408 45056
478	458583 406 2717 4739 11 13.746335969273 16 0 1 7 7
479	458989 238 3006 4730 11.346297969273 13.746297969273 7 24000000 24000000 168000000 4.032e+15
482	459227 196 3006 4730 11.346297969273 13.746297969273 7 32 32 224 7168
483	459423 45 2764 4203 11 13 3 36 36 108 3888
484	459468 1227 2809 4823 11.104110384333 13.955937774295 44 32 32 1408 45056
485	460695 45 2764 4203 11 13 3 36 36 108 3888
491	460740 45 2764 4203 11 13 3 36 36 108 3888
492	460785 420 2717 4740 11 13.746335969273 17 0 3 37 95
493	461205 2758 2717 4822 11 13.955937774295 103 0 3 184 448
494	463963 756 3007 4740 11.346297969273 13.746335969273 28 0 2 28 42
495	464719 203 2717 4592 11 13.646297969273 8 0 0 0 0
508	464922 45 2761 4184 11 13 3 28 28 84 2352
510	464967 45 2747 4192 11 13 3 18 18 54 972
512	465012 14 2717 2717 11 11 1 0 0 0 0
513	465026 14 2717 2717 11 11 1 0 0 0 0
514	465040 14 2717 2717 11 11 1 0 0 0 0
517	465054 45 2730 4182 11 13 3 10 10 30 300
524	465099 216 2766 4761 11.004071492562 13.804071492562 8 1 1 8 8
526	465315 189 3037 4761 11.404071492562 13.804071492562 7 1 1 7 7
527	465504 502 2717 4778 11 13.904071492562 21 0 1 8 8
528	466006 518 2717 4778 11 13.904071492562 21 0 256 2048 524288
529	466524 216 2782 4778 11.104071492562 13.904071492562 8 0 0 0 0
530	466740 232 2780 4776 11.104071492562 13.904071492562 8 256 256 2048 524288
531	466972 481 2780 4776 11.1 13.9 29 0 2560 17920 45875200
532	467453 232 2782 4778 11.104071492562 13.904071492562 8 256 256 2048 524288
533	467685 481 2782 4778 11.1 13.9 29 0 2560 17920 45875200
538	468166 264 2791 4787 11.104109492562 13.904109492562 8 3.8e-05 3.8e-05 0.000304 1.1552e-08
539	468430 460 2717 4787 11 13.904109492562 18 0 1 8 8
540	468890 220 2780 4776 11.104071492562 13.904071492562 8 1 31 98 1986
541	469110 460 2717 4777 11 13.904071492562 18 0 1 8 8
542	469570 6400 2717 4837 11 13.955938532203 238 0 2 32 64
544	475970 15 2717 2717 11 11 1 31 31 31 961
545	475985 224 2791 4787 11.104109492562 13.904109492562 8 32 32 256 8192
547	476209 224 2791 4787 11.104109492562 13.904109492562 8 32 32 256 8192
548	476433 224 2791 4787 11.104109492562 13.904109492562 8 32 32 256 8192
550	476657 224 2791 4787 11.104109492562 13.904109492562 8 32 32 256 8192
551	476881 1176 2842 4757 11.155938569461 13.746336845153 42 32 32 1344 43008
553	478057 1176 2842 4757 11.155938569461 13.746336845153 42 32 32 1344 43008
554	479233 1176 2842 4757 11.155938569461 13.746336845153 42 32 32 1344 43008
556	480409 1176 2842 4757 11.155938569461 13.746336845153 42 32 32 1344 43008
561	481585 460 2717 4787 11 13.904109492562 18 0 1 8 8
562	482045 272 2782 4778 11.104071492562 13.904071492562 8 24000000 24000000 192000000 4.608e+15
565	482317 224 2782 4778 11.104071492562 13.904071492562 8 32 32 256 8192
566	482541 45 2765 4204 11 13 3 36 36 108 3888
567	482586 1176 2842 4757 11.155938569461 13.746336845153 42 32 32 1344 43008
568	483762 45 2765 4204 11 13 3 36 36 108 3888
574	483807 45 2765 4204 11 13 3 36 36 108 3888
575	483852 474 2717 4788 11 13.904109492562 19 0 3 42 108
576	484326 2768 2717 4837 11 13.955938532203 103 0 3 181 439
577	487094 864 2783 4788 11.104071492562 13.904109492562 32 0 2 32 48
578	487958 230 2717 4764 11 13.804071492562 9 0 0 0 0
