version 3
run General-0-20250319-13:35:44-7346
attr configname General
attr datetime 20250319-13:35:44
attr datetimef 20250319-133544
attr experiment General
attr inifile omnetpp.ini
attr iterationvars ""
attr iterationvarsd ""
attr iterationvarsf ""
attr measurement ""
attr network mobiedgesim.simulations.MultiMecHost.MultiMecHost
attr processid 7346
attr repetition 0
attr replication #0
attr resultdir results
attr runnumber 0
attr seedset 0
config image-path ../../../inet/images:../../../Simu5G/images:../../../veins/subprojects/veins_inet/images:../../../veins/images
config cmdenv-autoflush true
config network mobiedgesim.simulations.MultiMecHost.MultiMecHost
config debug-on-errors false
config print-undisposed false
config sim-time-limit 10000s
config **.sctp.**.scalar-recording false
config **.sctp.**.vector-recording false
config **.routingRecorder.enabled false
config *.playgroundSizeX 20000m
config *.playgroundSizeY 20000m
config *.playgroundSizeZ 50m
config *.veinsManager.host "\"localhost\""
config *.veinsManager.moduleType "\"car=mobiedgesim.nodes.mobileNodes.ue.Ue *=mobiedgesim.nodes.mobileNodes.mmecHost.MmecHost\""
config *.veinsManager.moduleName "\"car=ue *=mmecHost\""
config *.veinsManager.launchConfig "xmldoc(\"heterogeneous.launchd.xml\")"
config *.veinsManager.updateInterval 1s
config *.ue[*].mobility.typename VeinsInetMobility
config *.mmecHost[*].mobility.typename VeinsInetMobility
config *.mmecHost*.numApps 2
config *.mmecHost*.app[0].typename UdpBasicApp
config *.mmecHost*.app[0].destAddresses "\"ue[0]\""
config *.mmecHost*.app[0].destPort 1000
config *.mmecHost*.app[0].sendInterval 1s
config *.mmecHost*.app[0].messageLength 10Byte
config *.mmecHost*.app[0].packetName "\"mmeHostData\""
config *.mmecHost*.app[1].typename UdpSink
config *.mmecHost*.app[1].localPort 1000
config *.ue*.numApps 2
config *.ue*.app[0].typename UdpBasicApp
config *.ue*.app[0].destAddresses "\"mmecHost[1]\""
config *.ue*.app[0].destPort 1000
config *.ue*.app[0].sendInterval 1s
config *.ue*.app[0].messageLength 10Byte
config *.ue*.app[0].packetName "\"ueData\""
config *.ue*.app[1].typename UdpSink
config *.ue*.app[1].localPort 1000
config *.mmecHost*.app[0].startTime 1s
config *.mmecHost*.app[1].startTime 1s
config *.ue*.app[0].startTime 1s
config *.ue*.app[1].startTime 1s
config *.ue*.numWlanInterfaces 1
config *.ue*.ipv4.configurator.interfaces "\"wlan lo0\""
config *.mmecHost*.numWlanInterfaces 1
config *.mmecHost*.ipv4.configurator.interfaces "\"wlan lo0\""
config **.wlan*.radio.antenna.typename IsotropicAntenna
config **.wlan*.radio.antenna.mobility.typename ""
config **.wlan*.radio.antenna.mobilityModule "\"^.^.^.mobility\""

vector 0 MultiMecHost.ue[0].lo[0].lo rcvdPkFromHl:vector(packetBytes) ETV
attr interpolationmode none
attr recordingmode vector(packetBytes)
attr source packetReceivedFromUpper
attr title "packets received from higher layer, packetBytes"
vector 1 MultiMecHost.ue[0].lo[0].lo passedUpPk:vector(packetBytes) ETV
attr interpolationmode none
attr recordingmode vector(packetBytes)
attr source packetSentToUpper
attr title "packets passed to higher layer, packetBytes"
vector 2 MultiMecHost.ue[0].lo[0] packetDropInterfaceDown:vector(packetBytes) ETV
attr interpolationmode none
attr recordingmode vector(packetBytes)
attr source packetDropReasonIsInterfaceDown(packetDropped)
attr title "packet drops: interface down, packetBytes"
vector 3 MultiMecHost.ue[0].lo[0] packetDropNoCarrier:vector(packetBytes) ETV
attr interpolationmode none
attr recordingmode vector(packetBytes)
attr source packetDropReasonIsNoCarrier(packetDropped)
attr title "packet drops: no carrier, packetBytes"
vector 4 MultiMecHost.ue[0].ipv4.ip packetDropAddressResolutionFailed:vector(packetBytes) ETV
attr interpolationmode none
attr recordingmode vector(packetBytes)
attr source packetDropReasonIsAddressResolutionFailed(packetDropped)
attr title "packet drop: address resolution failed, packetBytes"
vector 5 MultiMecHost.ue[0].ipv4.ip packetDropHopLimitReached:vector(packetBytes) ETV
attr interpolationmode none
attr recordingmode vector(packetBytes)
attr source packetDropReasonIsHopLimitReached(packetDropped)
attr title "packet drop: hop limit reached, packetBytes"
vector 6 MultiMecHost.ue[0].ipv4.ip packetDropForwardingDisabled:vector(packetBytes) ETV
attr interpolationmode none
attr recordingmode vector(packetBytes)
attr source packetDropReasonIsForwardingDisabled(packetDropped)
attr title "packet drop: forwarding disabled, packetBytes"
vector 7 MultiMecHost.ue[0].ipv4.ip packetDropNoInterfaceFound:vector(packetBytes) ETV
attr interpolationmode none
attr recordingmode vector(packetBytes)
attr source packetDropReasonIsNoInterfaceFound(packetDropped)
attr title "packet drop: no interface found, packetBytes"
vector 8 MultiMecHost.ue[0].ipv4.ip packetDropNoRouteFound:vector(packetBytes) ETV
attr interpolationmode none
attr recordingmode vector(packetBytes)
attr source packetDropReasonIsNoRouteFound(packetDropped)
attr title "packet drop: no route found, packetBytes"
vector 9 MultiMecHost.ue[0].ipv4.ip packetDropUndefined:vector(packetBytes) ETV
attr interpolationmode none
attr recordingmode vector(packetBytes)
attr source packetDropReasonIsUndefined(packetDropped)
attr title "packet drop: undefined, packetBytes"
vector 10 MultiMecHost.ue[0].ipv4.arp arpRequestSent:vector(packetBytes) ETV
attr recordingmode vector(packetBytes)
attr source arpRequestSent
attr title "ARP request sent, packetBytes"
vector 11 MultiMecHost.ue[0].ipv4.arp arpReplySent:vector(packetBytes) ETV
attr recordingmode vector(packetBytes)
attr source arpReplySent
attr title "ARP replies sent, packetBytes"
vector 12 MultiMecHost.ue[0].udp packetSent:vector(packetBytes) ETV
attr interpolationmode none
attr recordingmode vector(packetBytes)
attr source packetSent
attr title "packets sent, packetBytes"
vector 13 MultiMecHost.ue[0].udp packetReceived:vector(packetBytes) ETV
attr interpolationmode none
attr recordingmode vector(packetBytes)
attr source packetReceived
attr title "packets received, packetBytes"
vector 14 MultiMecHost.ue[0].udp passedUpPk:vector(count) ETV
attr interpolationmode none
attr recordingmode vector(count)
attr source packetSentToUpper
attr title "packets passed up, count"
vector 15 MultiMecHost.ue[0].udp droppedPkWrongPort:vector(count) ETV
attr interpolationmode none
attr recordingmode vector(count)
attr source packetDropReasonIsNoPortFound(packetDropped)
attr title "packets dropped (wrong port), count"
vector 16 MultiMecHost.ue[0].udp droppedPkBadChecksum:vector(count) ETV
attr interpolationmode none
attr recordingmode vector(count)
attr source packetDropReasonIsIncorrectlyReceived(packetDropped)
attr title "packets dropped (checksum error), count"
vector 17 MultiMecHost.ue[0].app[0] packetReceived:vector(packetBytes) ETV
attr interpolationmode none
attr recordingmode vector(packetBytes)
attr source packetReceived
attr title "packets received, packetBytes"
vector 18 MultiMecHost.ue[0].app[0] throughput:vector ETV
attr recordingmode vector
attr source throughput(packetReceived)
attr title throughput
attr unit bps
vector 19 MultiMecHost.ue[0].app[0] packetSent:vector(packetBytes) ETV
attr interpolationmode none
attr recordingmode vector(packetBytes)
attr source packetSent
attr title "packets sent, packetBytes"
vector 20 MultiMecHost.ue[0].app[0] rcvdPkLifetime:vector ETV
attr interpolationmode none
attr recordingmode vector
attr source dataAge(packetReceived)
attr title "received packet lifetime"
attr unit s
vector 21 MultiMecHost.ue[0].app[0] rcvdPkSeqNo:vector ETV
attr interpolationmode none
attr recordingmode vector
attr source appPkSeqNo(packetReceived)
attr title "received packet sequence number"
vector 22 MultiMecHost.ue[0].app[1] packetReceived:vector(packetBytes) ETV
attr interpolationmode none
attr recordingmode vector(packetBytes)
attr source packetReceived
attr title "packets received, packetBytes"
vector 23 MultiMecHost.ue[0].app[1] throughput:vector ETV
attr recordingmode vector
attr source throughput(packetReceived)
attr title throughput
attr unit bps
vector 24 MultiMecHost.ue[0].app[1] endToEndDelay:vector ETV
attr interpolationmode none
attr recordingmode vector
attr source dataAge(packetReceived)
attr title "end-to-end delay"
attr unit s
vector 25 MultiMecHost.ue[0].app[1] rcvdPkSeqNo:vector ETV
attr interpolationmode none
attr recordingmode vector
attr source appPkSeqNo(packetReceived)
attr title "received packet sequence number"
vector 26 MultiMecHost.ue[0].wlan[0].agent sentRequest:vector ETV
attr recordingmode vector
attr title "sent requests"
vector 27 MultiMecHost.ue[0].wlan[0].agent acceptConfirm:vector ETV
attr recordingmode vector
attr title "accepted confirms"
vector 28 MultiMecHost.ue[0].wlan[0].agent dropConfirm:vector ETV
attr recordingmode vector
attr title "dropped confirms"
vector 29 MultiMecHost.ue[0].wlan[0].mac.dcf.channelAccess.pendingQueue queueLength:vector ETV
attr autoWarmupFilter false
attr interpolationmode sample-hold
attr recordingmode vector
attr source "warmup(atomic(constant0(packetPushEnded) + count(packetPushStarted) - count(packetPulled) - count(packetRemoved) - count(packetDropped)))"
attr title "queue length"
attr unit pk
vector 30 MultiMecHost.ue[0].wlan[0].mac.dcf.channelAccess.pendingQueue queueBitLength:vector ETV
attr autoWarmupFilter false
attr interpolationmode sample-hold
attr recordingmode vector
attr source "warmup(atomic(constant0(packetPushEnded) + sum(packetLength(packetPushStarted)) - sum(packetLength(packetPulled)) - sum(packetLength(packetRemoved)) - sum(packetLength(packetDropped))))"
attr title "queue bit length"
attr unit b
vector 31 MultiMecHost.ue[0].wlan[0].mac.dcf.channelAccess.pendingQueue queueingTime:vector ETV
attr interpolationmode none
attr recordingmode vector
attr source queueingTime(packetPulled)
attr title "queueing times"
attr unit s
vector 32 MultiMecHost.ue[0].wlan[0].mac.dcf.channelAccess.pendingQueue incomingPacketLengths:vector ETV
attr interpolationmode none
attr recordingmode vector
attr source packetLength(packetPushStarted)
attr title "incoming packet lengths"
attr unit b
vector 33 MultiMecHost.ue[0].wlan[0].mac.dcf.channelAccess.pendingQueue incomingDataRate:vector ETV
attr interpolationmode linear
attr recordingmode vector
attr source throughput(packetPushStarted)
attr title "incoming datarate"
attr unit bps
vector 34 MultiMecHost.ue[0].wlan[0].mac.dcf.channelAccess.pendingQueue outgoingPacketLengths:vector ETV
attr interpolationmode none
attr recordingmode vector
attr source packetLength(packetPulled)
attr title "outgoing packet lengths"
attr unit b
vector 35 MultiMecHost.ue[0].wlan[0].mac.dcf.channelAccess.pendingQueue outgoingDataRate:vector ETV
attr interpolationmode linear
attr recordingmode vector
attr source throughput(packetPulled)
attr title "outgoing datarate"
attr unit bps
vector 36 MultiMecHost.ue[0].wlan[0].mac.dcf.channelAccess.pendingQueue droppedPacketLengthsQueueOverflow:vector ETV
attr interpolationmode none
attr recordingmode vector
attr source packetLength(packetDropReasonIsQueueOverflow(packetDropped))
attr title "dropped packet lengths: queue overflow"
attr unit b
vector 37 MultiMecHost.ue[0].wlan[0].mac.dcf.channelAccess.pendingQueue flowQueueingTime:vector ETV
attr interpolationmode none
attr recordingmode vector
attr source queueingTime(demuxFlow(packetPulled))
attr title "flow queueing times"
attr unit s
vector 38 MultiMecHost.ue[0].wlan[0].mac.dcf.channelAccess.pendingQueue flowIncomingDataRate:vector ETV
attr interpolationmode linear
attr recordingmode vector
attr source throughput(flowPacketLength(demuxFlow(packetPushStarted)))
attr title "flow specific incoming data rate"
attr unit bps
vector 39 MultiMecHost.ue[0].wlan[0].mac.dcf.channelAccess.pendingQueue flowOutgoingDataRate:vector ETV
attr interpolationmode linear
attr recordingmode vector
attr source throughput(flowPacketLength(demuxFlow(packetPulled)))
attr title "flow specific outgoing data rate"
attr unit bps
vector 40 MultiMecHost.ue[0].wlan[0].mac.dcf.channelAccess.inProgressFrames queueingTime:vector ETV
attr interpolationmode none
attr recordingmode vector
attr source queueingTime(packetDequeued)
attr title "queueing times"
vector 41 MultiMecHost.ue[0].wlan[0].mac.dcf.channelAccess.inProgressFrames queueLength:vector ETV
attr autoWarmupFilter false
attr interpolationmode sample-hold
attr recordingmode vector
attr source "warmup(count(packetEnqueued) - count(packetDequeued))"
attr title "queue length"
vector 42 MultiMecHost.ue[0].wlan[0].mac.dcf.channelAccess.contention backoffPeriodGenerated:vector ETV
attr interpolationmode none
attr recordingmode vector
attr title "backoff periods"
vector 43 MultiMecHost.ue[0].wlan[0].mac.dcf.channelAccess.contention backoffActive:vector ETV
attr autoWarmupFilter false
attr interpolationmode sample-hold
attr recordingmode vector
attr source warmup(count(backoffStarted)-count(backoffStopped))
attr title "backoff active"
vector 44 MultiMecHost.ue[0].wlan[0].mac.dcf.channelAccess.contention stateChanged:vector ETV
attr enum IDLE,DEFER,IFS_AND_BACKOFF
attr interpolationmode none
attr recordingmode vector
attr title "contention state changed"
attr type enum
vector 45 MultiMecHost.ue[0].wlan[0].mac.dcf.recipientMacDataService packetDropDuplicateDetected:vector(packetBytes) ETV
attr interpolationmode none
attr recordingmode vector(packetBytes)
attr source packetDropReasonIsDuplicateDetected(packetDropped)
attr title "packet drops: duplicate detected, packetBytes"
vector 46 MultiMecHost.ue[0].wlan[0].mac.dcf.recoveryProcedure contentionWindowChanged:vector ETV
attr interpolationmode sample-hold
attr recordingmode vector
attr title "contention window"
vector 47 MultiMecHost.ue[0].wlan[0].mac.dcf packetSentToPeer:vector(packetBytes) ETV
attr interpolationmode none
attr recordingmode vector(packetBytes)
attr title "packets sent, packetBytes"
vector 48 MultiMecHost.ue[0].wlan[0].mac.dcf packetSentToPeerUnicast:vector(packetBytes) ETV
attr interpolationmode none
attr recordingmode vector(packetBytes)
attr source ieee80211Unicast(packetSentToPeer)
attr title "packets sent: unicast, packetBytes"
vector 49 MultiMecHost.ue[0].wlan[0].mac.dcf packetSentToPeerMulticast:vector(packetBytes) ETV
attr interpolationmode none
attr recordingmode vector(packetBytes)
attr source ieee80211Multicast(packetSentToPeer)
attr title "packets sent: multicast, packetBytes"
vector 50 MultiMecHost.ue[0].wlan[0].mac.dcf packetSentToPeerBroadcast:vector(packetBytes) ETV
attr interpolationmode none
attr recordingmode vector(packetBytes)
attr source ieee80211Broadcast(packetSentToPeer)
attr title "packets sent: broadcast , packetBytes"
vector 51 MultiMecHost.ue[0].wlan[0].mac.dcf packetSentToPeerWithRetry:vector(packetBytes) ETV
attr interpolationmode none
attr recordingmode vector(packetBytes)
attr source ieee80211Retry(packetSentToPeer)
attr title "packets sent: with retry, packetBytes"
vector 52 MultiMecHost.ue[0].wlan[0].mac.dcf packetSentToPeerWithoutRetry:vector(packetBytes) ETV
attr interpolationmode none
attr recordingmode vector(packetBytes)
attr source ieee80211NotRetry(packetSentToPeer)
attr title "packets sent: without retry, packetBytes"
vector 53 MultiMecHost.ue[0].wlan[0].mac.dcf packetReceivedFromPeer:vector(packetBytes) ETV
attr interpolationmode none
attr recordingmode vector(packetBytes)
attr title "packets received, packetBytes"
vector 54 MultiMecHost.ue[0].wlan[0].mac.dcf packetReceivedFromPeerUnicast:vector(packetBytes) ETV
attr interpolationmode none
attr recordingmode vector(packetBytes)
attr source ieee80211Unicast(packetReceivedFromPeer)
attr title "packets received: unicast, packetBytes"
vector 55 MultiMecHost.ue[0].wlan[0].mac.dcf packetReceivedFromPeerMulticast:vector(packetBytes) ETV
attr interpolationmode none
attr recordingmode vector(packetBytes)
attr source ieee80211Multicast(packetReceivedFromPeer)
attr title "packets received: multicast, packetBytes"
vector 56 MultiMecHost.ue[0].wlan[0].mac.dcf packetReceivedFromPeerBroadcast:vector(packetBytes) ETV
attr interpolationmode none
attr recordingmode vector(packetBytes)
attr source ieee80211Broadcast(packetReceivedFromPeer)
attr title "packets received: broadcast, packetBytes"
vector 57 MultiMecHost.ue[0].wlan[0].mac.dcf packetReceivedFromPeerWithRetry:vector(packetBytes) ETV
attr interpolationmode none
attr recordingmode vector(packetBytes)
attr source ieee80211Retry(packetReceivedFromPeer)
attr title "packets received: with retry, packetBytes"
vector 58 MultiMecHost.ue[0].wlan[0].mac.dcf packetReceivedFromPeerWithoutRetry:vector(packetBytes) ETV
attr interpolationmode none
attr recordingmode vector(packetBytes)
attr source ieee80211NotRetry(packetReceivedFromPeer)
attr title "packets received: without retry, packetBytes"
vector 59 MultiMecHost.ue[0].wlan[0].mac.dcf packetDrop:vector(packetBytes) ETV
attr interpolationmode none
attr recordingmode vector(packetBytes)
attr source packetDropped
attr title "packet drops, packetBytes"
vector 60 MultiMecHost.ue[0].wlan[0].mac.dcf packetDropNotAddressedToUs:vector(packetBytes) ETV
attr interpolationmode none
attr recordingmode vector(packetBytes)
attr source packetDropReasonIsNotAddressedToUs(packetDropped)
attr title "packet drops: not addressed to us, packetBytes"
vector 61 MultiMecHost.ue[0].wlan[0].mac.dcf packetDropQueueOverflow:vector(packetBytes) ETV
attr interpolationmode none
attr recordingmode vector(packetBytes)
attr source packetDropReasonIsQueueOverflow(packetDropped)
attr title "packet drops: queue overflow, packetBytes"
vector 62 MultiMecHost.ue[0].wlan[0].mac.dcf packetDropRetryLimitReached:vector(packetBytes) ETV
attr interpolationmode none
attr recordingmode vector(packetBytes)
attr source packetDropReasonIsRetryLimitReached(packetDropped)
attr title "packet drops: retry limit reached, packetBytes"
vector 63 MultiMecHost.ue[0].wlan[0].mac.dcf frameSequenceActive:vector ETV
attr autoWarmupFilter false
attr interpolationmode sample-hold
attr recordingmode vector
attr source warmup(count(frameSequenceStarted)-count(frameSequenceFinished))
attr title "frame sequence active"
vector 64 MultiMecHost.ue[0].wlan[0].mac.dcf datarateSelected:vector ETV
attr interpolationmode none
attr recordingmode vector
attr title "datarates selected"
vector 65 MultiMecHost.ue[0].wlan[0].mac.rx nav:vector ETV
attr interpolationmode linear
attr recordingmode vector
attr source navChanged
attr title "network allocation vector"
vector 66 MultiMecHost.ue[0].wlan[0].mac packetSentToUpper:vector(packetBytes) ETV
attr interpolationmode none
attr recordingmode vector(packetBytes)
attr title "packets sent to upper layer, packetBytes"
vector 67 MultiMecHost.ue[0].wlan[0].mac packetSentToLower:vector(packetBytes) ETV
attr interpolationmode none
attr recordingmode vector(packetBytes)
attr title "packets sent to lower layer, packetBytes"
vector 68 MultiMecHost.ue[0].wlan[0].mac packetReceivedFromUpper:vector(packetBytes) ETV
attr interpolationmode none
attr recordingmode vector(packetBytes)
attr title "packets received from upper layer, packetBytes"
vector 69 MultiMecHost.ue[0].wlan[0].mac packetReceivedFromLower:vector(packetBytes) ETV
attr interpolationmode none
attr recordingmode vector(packetBytes)
attr title "packets received from lower layer, packetBytes"
vector 70 MultiMecHost.ue[0].wlan[0].mac packetDrop:vector(packetBytes) ETV
attr interpolationmode none
attr recordingmode vector(packetBytes)
attr source packetDropped
attr title "packet drops, packetBytes"
vector 71 MultiMecHost.ue[0].wlan[0].mac packetDropIncorrectlyReceived:vector(packetBytes) ETV
attr interpolationmode none
attr recordingmode vector(packetBytes)
attr source packetDropReasonIsIncorrectlyReceived(packetDropped)
attr title "packet drops: incorrectly received, packetBytes"
vector 72 MultiMecHost.ue[0].wlan[0].mac packetDropNotAddressedToUs:vector(packetBytes) ETV
attr interpolationmode none
attr recordingmode vector(packetBytes)
attr source packetDropReasonIsNotAddressedToUs(packetDropped)
attr title "packet drops: not addressed to us, packetBytes"
vector 73 MultiMecHost.ue[0].wlan[0].mac packetDropQueueOverflow:vector(packetBytes) ETV
attr interpolationmode none
attr recordingmode vector(packetBytes)
attr source packetDropReasonIsQueueOverflow(packetDropped)
attr title "packet drops: queue overflow, packetBytes"
vector 74 MultiMecHost.ue[0].wlan[0].mac packetDropRetryLimitReached:vector(packetBytes) ETV
attr interpolationmode none
attr recordingmode vector(packetBytes)
attr source packetDropReasonIsRetryLimitReached(packetDropped)
attr title "packet drops: retry limit reached, packetBytes"
vector 75 MultiMecHost.ue[0].wlan[0].mac packetDropDuplicateDetected:vector(packetBytes) ETV
attr interpolationmode none
attr recordingmode vector(packetBytes)
attr source packetDropReasonIsDuplicateDetected(packetDropped)
attr title "packet drops: duplicate detected, packetBytes"
vector 76 MultiMecHost.ue[0].wlan[0].mac packetDropOther:vector(packetBytes) ETV
attr interpolationmode none
attr recordingmode vector(packetBytes)
attr source packetDropReasonIsOther(packetDropped)
attr title "packet drops: other, packetBytes"
vector 77 MultiMecHost.ue[0].wlan[0].radio radioMode:vector ETV
attr interpolationmode sample-hold
attr recordingmode vector
attr source radioModeChanged
attr title "Radio mode"
vector 78 MultiMecHost.ue[0].wlan[0].radio receptionState:vector ETV
attr interpolationmode sample-hold
attr recordingmode vector
attr source receptionStateChanged
attr title "Radio reception state"
vector 79 MultiMecHost.ue[0].wlan[0].radio transmissionState:vector ETV
attr interpolationmode sample-hold
attr recordingmode vector
attr source transmissionStateChanged
attr title "Radio transmission state"
vector 80 MultiMecHost.ue[0].wlan[0].radio radioChannel:vector ETV
attr interpolationmode sample-hold
attr recordingmode vector
attr source radioChannelChanged
attr title "Radio channel"
vector 81 MultiMecHost.ue[0].wlan[0] packetDropInterfaceDown:vector(packetBytes) ETV
attr interpolationmode none
attr recordingmode vector(packetBytes)
attr source packetDropReasonIsInterfaceDown(packetDropped)
attr title "packet drops: interface down, packetBytes"
vector 82 MultiMecHost.ue[0].wlan[0] packetDropNoCarrier:vector(packetBytes) ETV
attr interpolationmode none
attr recordingmode vector(packetBytes)
attr source packetDropReasonIsNoCarrier(packetDropped)
attr title "packet drops: no carrier, packetBytes"
vector 83 MultiMecHost.mmecHost[1].lo[0].lo rcvdPkFromHl:vector(packetBytes) ETV
attr interpolationmode none
attr recordingmode vector(packetBytes)
attr source packetReceivedFromUpper
attr title "packets received from higher layer, packetBytes"
vector 84 MultiMecHost.mmecHost[1].lo[0].lo passedUpPk:vector(packetBytes) ETV
attr interpolationmode none
attr recordingmode vector(packetBytes)
attr source packetSentToUpper
attr title "packets passed to higher layer, packetBytes"
vector 85 MultiMecHost.mmecHost[1].lo[0] packetDropInterfaceDown:vector(packetBytes) ETV
attr interpolationmode none
attr recordingmode vector(packetBytes)
attr source packetDropReasonIsInterfaceDown(packetDropped)
attr title "packet drops: interface down, packetBytes"
vector 86 MultiMecHost.mmecHost[1].lo[0] packetDropNoCarrier:vector(packetBytes) ETV
attr interpolationmode none
attr recordingmode vector(packetBytes)
attr source packetDropReasonIsNoCarrier(packetDropped)
attr title "packet drops: no carrier, packetBytes"
vector 87 MultiMecHost.mmecHost[1].ipv4.ip packetDropAddressResolutionFailed:vector(packetBytes) ETV
attr interpolationmode none
attr recordingmode vector(packetBytes)
attr source packetDropReasonIsAddressResolutionFailed(packetDropped)
attr title "packet drop: address resolution failed, packetBytes"
vector 88 MultiMecHost.mmecHost[1].ipv4.ip packetDropHopLimitReached:vector(packetBytes) ETV
attr interpolationmode none
attr recordingmode vector(packetBytes)
attr source packetDropReasonIsHopLimitReached(packetDropped)
attr title "packet drop: hop limit reached, packetBytes"
vector 89 MultiMecHost.mmecHost[1].ipv4.ip packetDropForwardingDisabled:vector(packetBytes) ETV
attr interpolationmode none
attr recordingmode vector(packetBytes)
attr source packetDropReasonIsForwardingDisabled(packetDropped)
attr title "packet drop: forwarding disabled, packetBytes"
vector 90 MultiMecHost.mmecHost[1].ipv4.ip packetDropNoInterfaceFound:vector(packetBytes) ETV
attr interpolationmode none
attr recordingmode vector(packetBytes)
attr source packetDropReasonIsNoInterfaceFound(packetDropped)
attr title "packet drop: no interface found, packetBytes"
vector 91 MultiMecHost.mmecHost[1].ipv4.ip packetDropNoRouteFound:vector(packetBytes) ETV
attr interpolationmode none
attr recordingmode vector(packetBytes)
attr source packetDropReasonIsNoRouteFound(packetDropped)
attr title "packet drop: no route found, packetBytes"
vector 92 MultiMecHost.mmecHost[1].ipv4.ip packetDropUndefined:vector(packetBytes) ETV
attr interpolationmode none
attr recordingmode vector(packetBytes)
attr source packetDropReasonIsUndefined(packetDropped)
attr title "packet drop: undefined, packetBytes"
vector 93 MultiMecHost.mmecHost[1].ipv4.arp arpRequestSent:vector(packetBytes) ETV
attr recordingmode vector(packetBytes)
attr source arpRequestSent
attr title "ARP request sent, packetBytes"
vector 94 MultiMecHost.mmecHost[1].ipv4.arp arpReplySent:vector(packetBytes) ETV
attr recordingmode vector(packetBytes)
attr source arpReplySent
attr title "ARP replies sent, packetBytes"
vector 95 MultiMecHost.mmecHost[1].udp packetSent:vector(packetBytes) ETV
attr interpolationmode none
attr recordingmode vector(packetBytes)
attr source packetSent
attr title "packets sent, packetBytes"
vector 96 MultiMecHost.mmecHost[1].udp packetReceived:vector(packetBytes) ETV
attr interpolationmode none
attr recordingmode vector(packetBytes)
attr source packetReceived
attr title "packets received, packetBytes"
vector 97 MultiMecHost.mmecHost[1].udp passedUpPk:vector(count) ETV
attr interpolationmode none
attr recordingmode vector(count)
attr source packetSentToUpper
attr title "packets passed up, count"
vector 98 MultiMecHost.mmecHost[1].udp droppedPkWrongPort:vector(count) ETV
attr interpolationmode none
attr recordingmode vector(count)
attr source packetDropReasonIsNoPortFound(packetDropped)
attr title "packets dropped (wrong port), count"
vector 99 MultiMecHost.mmecHost[1].udp droppedPkBadChecksum:vector(count) ETV
attr interpolationmode none
attr recordingmode vector(count)
attr source packetDropReasonIsIncorrectlyReceived(packetDropped)
attr title "packets dropped (checksum error), count"
vector 100 MultiMecHost.mmecHost[1].app[0] packetReceived:vector(packetBytes) ETV
attr interpolationmode none
attr recordingmode vector(packetBytes)
attr source packetReceived
attr title "packets received, packetBytes"
vector 101 MultiMecHost.mmecHost[1].app[0] throughput:vector ETV
attr recordingmode vector
attr source throughput(packetReceived)
attr title throughput
attr unit bps
vector 102 MultiMecHost.mmecHost[1].app[0] packetSent:vector(packetBytes) ETV
attr interpolationmode none
attr recordingmode vector(packetBytes)
attr source packetSent
attr title "packets sent, packetBytes"
vector 103 MultiMecHost.mmecHost[1].app[0] rcvdPkLifetime:vector ETV
attr interpolationmode none
attr recordingmode vector
attr source dataAge(packetReceived)
attr title "received packet lifetime"
attr unit s
vector 104 MultiMecHost.mmecHost[1].app[0] rcvdPkSeqNo:vector ETV
attr interpolationmode none
attr recordingmode vector
attr source appPkSeqNo(packetReceived)
attr title "received packet sequence number"
vector 105 MultiMecHost.mmecHost[1].app[1] packetReceived:vector(packetBytes) ETV
attr interpolationmode none
attr recordingmode vector(packetBytes)
attr source packetReceived
attr title "packets received, packetBytes"
vector 106 MultiMecHost.mmecHost[1].app[1] throughput:vector ETV
attr recordingmode vector
attr source throughput(packetReceived)
attr title throughput
attr unit bps
vector 107 MultiMecHost.mmecHost[1].app[1] endToEndDelay:vector ETV
attr interpolationmode none
attr recordingmode vector
attr source dataAge(packetReceived)
attr title "end-to-end delay"
attr unit s
vector 108 MultiMecHost.mmecHost[1].app[1] rcvdPkSeqNo:vector ETV
attr interpolationmode none
attr recordingmode vector
attr source appPkSeqNo(packetReceived)
attr title "received packet sequence number"
vector 109 MultiMecHost.mmecHost[1].wlan[0].agent sentRequest:vector ETV
attr recordingmode vector
attr title "sent requests"
vector 110 MultiMecHost.mmecHost[1].wlan[0].agent acceptConfirm:vector ETV
attr recordingmode vector
attr title "accepted confirms"
vector 111 MultiMecHost.mmecHost[1].wlan[0].agent dropConfirm:vector ETV
attr recordingmode vector
attr title "dropped confirms"
vector 112 MultiMecHost.mmecHost[1].wlan[0].mac.dcf.channelAccess.pendingQueue queueLength:vector ETV
attr autoWarmupFilter false
attr interpolationmode sample-hold
attr recordingmode vector
attr source "warmup(atomic(constant0(packetPushEnded) + count(packetPushStarted) - count(packetPulled) - count(packetRemoved) - count(packetDropped)))"
attr title "queue length"
attr unit pk
vector 113 MultiMecHost.mmecHost[1].wlan[0].mac.dcf.channelAccess.pendingQueue queueBitLength:vector ETV
attr autoWarmupFilter false
attr interpolationmode sample-hold
attr recordingmode vector
attr source "warmup(atomic(constant0(packetPushEnded) + sum(packetLength(packetPushStarted)) - sum(packetLength(packetPulled)) - sum(packetLength(packetRemoved)) - sum(packetLength(packetDropped))))"
attr title "queue bit length"
attr unit b
vector 114 MultiMecHost.mmecHost[1].wlan[0].mac.dcf.channelAccess.pendingQueue queueingTime:vector ETV
attr interpolationmode none
attr recordingmode vector
attr source queueingTime(packetPulled)
attr title "queueing times"
attr unit s
vector 115 MultiMecHost.mmecHost[1].wlan[0].mac.dcf.channelAccess.pendingQueue incomingPacketLengths:vector ETV
attr interpolationmode none
attr recordingmode vector
attr source packetLength(packetPushStarted)
attr title "incoming packet lengths"
attr unit b
vector 116 MultiMecHost.mmecHost[1].wlan[0].mac.dcf.channelAccess.pendingQueue incomingDataRate:vector ETV
attr interpolationmode linear
attr recordingmode vector
attr source throughput(packetPushStarted)
attr title "incoming datarate"
attr unit bps
vector 117 MultiMecHost.mmecHost[1].wlan[0].mac.dcf.channelAccess.pendingQueue outgoingPacketLengths:vector ETV
attr interpolationmode none
attr recordingmode vector
attr source packetLength(packetPulled)
attr title "outgoing packet lengths"
attr unit b
vector 118 MultiMecHost.mmecHost[1].wlan[0].mac.dcf.channelAccess.pendingQueue outgoingDataRate:vector ETV
attr interpolationmode linear
attr recordingmode vector
attr source throughput(packetPulled)
attr title "outgoing datarate"
attr unit bps
vector 119 MultiMecHost.mmecHost[1].wlan[0].mac.dcf.channelAccess.pendingQueue droppedPacketLengthsQueueOverflow:vector ETV
attr interpolationmode none
attr recordingmode vector
attr source packetLength(packetDropReasonIsQueueOverflow(packetDropped))
attr title "dropped packet lengths: queue overflow"
attr unit b
vector 120 MultiMecHost.mmecHost[1].wlan[0].mac.dcf.channelAccess.pendingQueue flowQueueingTime:vector ETV
attr interpolationmode none
attr recordingmode vector
attr source queueingTime(demuxFlow(packetPulled))
attr title "flow queueing times"
attr unit s
vector 121 MultiMecHost.mmecHost[1].wlan[0].mac.dcf.channelAccess.pendingQueue flowIncomingDataRate:vector ETV
attr interpolationmode linear
attr recordingmode vector
attr source throughput(flowPacketLength(demuxFlow(packetPushStarted)))
attr title "flow specific incoming data rate"
attr unit bps
vector 122 MultiMecHost.mmecHost[1].wlan[0].mac.dcf.channelAccess.pendingQueue flowOutgoingDataRate:vector ETV
attr interpolationmode linear
attr recordingmode vector
attr source throughput(flowPacketLength(demuxFlow(packetPulled)))
attr title "flow specific outgoing data rate"
attr unit bps
vector 123 MultiMecHost.mmecHost[1].wlan[0].mac.dcf.channelAccess.inProgressFrames queueingTime:vector ETV
attr interpolationmode none
attr recordingmode vector
attr source queueingTime(packetDequeued)
attr title "queueing times"
vector 124 MultiMecHost.mmecHost[1].wlan[0].mac.dcf.channelAccess.inProgressFrames queueLength:vector ETV
attr autoWarmupFilter false
attr interpolationmode sample-hold
attr recordingmode vector
attr source "warmup(count(packetEnqueued) - count(packetDequeued))"
attr title "queue length"
vector 125 MultiMecHost.mmecHost[1].wlan[0].mac.dcf.channelAccess.contention backoffPeriodGenerated:vector ETV
attr interpolationmode none
attr recordingmode vector
attr title "backoff periods"
vector 126 MultiMecHost.mmecHost[1].wlan[0].mac.dcf.channelAccess.contention backoffActive:vector ETV
attr autoWarmupFilter false
attr interpolationmode sample-hold
attr recordingmode vector
attr source warmup(count(backoffStarted)-count(backoffStopped))
attr title "backoff active"
vector 127 MultiMecHost.mmecHost[1].wlan[0].mac.dcf.channelAccess.contention stateChanged:vector ETV
attr enum IDLE,DEFER,IFS_AND_BACKOFF
attr interpolationmode none
attr recordingmode vector
attr title "contention state changed"
attr type enum
vector 128 MultiMecHost.mmecHost[1].wlan[0].mac.dcf.recipientMacDataService packetDropDuplicateDetected:vector(packetBytes) ETV
attr interpolationmode none
attr recordingmode vector(packetBytes)
attr source packetDropReasonIsDuplicateDetected(packetDropped)
attr title "packet drops: duplicate detected, packetBytes"
vector 129 MultiMecHost.mmecHost[1].wlan[0].mac.dcf.recoveryProcedure contentionWindowChanged:vector ETV
attr interpolationmode sample-hold
attr recordingmode vector
attr title "contention window"
vector 130 MultiMecHost.mmecHost[1].wlan[0].mac.dcf packetSentToPeer:vector(packetBytes) ETV
attr interpolationmode none
attr recordingmode vector(packetBytes)
attr title "packets sent, packetBytes"
vector 131 MultiMecHost.mmecHost[1].wlan[0].mac.dcf packetSentToPeerUnicast:vector(packetBytes) ETV
attr interpolationmode none
attr recordingmode vector(packetBytes)
attr source ieee80211Unicast(packetSentToPeer)
attr title "packets sent: unicast, packetBytes"
vector 132 MultiMecHost.mmecHost[1].wlan[0].mac.dcf packetSentToPeerMulticast:vector(packetBytes) ETV
attr interpolationmode none
attr recordingmode vector(packetBytes)
attr source ieee80211Multicast(packetSentToPeer)
attr title "packets sent: multicast, packetBytes"
vector 133 MultiMecHost.mmecHost[1].wlan[0].mac.dcf packetSentToPeerBroadcast:vector(packetBytes) ETV
attr interpolationmode none
attr recordingmode vector(packetBytes)
attr source ieee80211Broadcast(packetSentToPeer)
attr title "packets sent: broadcast , packetBytes"
vector 134 MultiMecHost.mmecHost[1].wlan[0].mac.dcf packetSentToPeerWithRetry:vector(packetBytes) ETV
attr interpolationmode none
attr recordingmode vector(packetBytes)
attr source ieee80211Retry(packetSentToPeer)
attr title "packets sent: with retry, packetBytes"
vector 135 MultiMecHost.mmecHost[1].wlan[0].mac.dcf packetSentToPeerWithoutRetry:vector(packetBytes) ETV
attr interpolationmode none
attr recordingmode vector(packetBytes)
attr source ieee80211NotRetry(packetSentToPeer)
attr title "packets sent: without retry, packetBytes"
vector 136 MultiMecHost.mmecHost[1].wlan[0].mac.dcf packetReceivedFromPeer:vector(packetBytes) ETV
attr interpolationmode none
attr recordingmode vector(packetBytes)
attr title "packets received, packetBytes"
vector 137 MultiMecHost.mmecHost[1].wlan[0].mac.dcf packetReceivedFromPeerUnicast:vector(packetBytes) ETV
attr interpolationmode none
attr recordingmode vector(packetBytes)
attr source ieee80211Unicast(packetReceivedFromPeer)
attr title "packets received: unicast, packetBytes"
vector 138 MultiMecHost.mmecHost[1].wlan[0].mac.dcf packetReceivedFromPeerMulticast:vector(packetBytes) ETV
attr interpolationmode none
attr recordingmode vector(packetBytes)
attr source ieee80211Multicast(packetReceivedFromPeer)
attr title "packets received: multicast, packetBytes"
vector 139 MultiMecHost.mmecHost[1].wlan[0].mac.dcf packetReceivedFromPeerBroadcast:vector(packetBytes) ETV
attr interpolationmode none
attr recordingmode vector(packetBytes)
attr source ieee80211Broadcast(packetReceivedFromPeer)
attr title "packets received: broadcast, packetBytes"
vector 140 MultiMecHost.mmecHost[1].wlan[0].mac.dcf packetReceivedFromPeerWithRetry:vector(packetBytes) ETV
attr interpolationmode none
attr recordingmode vector(packetBytes)
attr source ieee80211Retry(packetReceivedFromPeer)
attr title "packets received: with retry, packetBytes"
vector 141 MultiMecHost.mmecHost[1].wlan[0].mac.dcf packetReceivedFromPeerWithoutRetry:vector(packetBytes) ETV
attr interpolationmode none
attr recordingmode vector(packetBytes)
attr source ieee80211NotRetry(packetReceivedFromPeer)
attr title "packets received: without retry, packetBytes"
vector 142 MultiMecHost.mmecHost[1].wlan[0].mac.dcf packetDrop:vector(packetBytes) ETV
attr interpolationmode none
attr recordingmode vector(packetBytes)
attr source packetDropped
attr title "packet drops, packetBytes"
vector 143 MultiMecHost.mmecHost[1].wlan[0].mac.dcf packetDropNotAddressedToUs:vector(packetBytes) ETV
attr interpolationmode none
attr recordingmode vector(packetBytes)
attr source packetDropReasonIsNotAddressedToUs(packetDropped)
attr title "packet drops: not addressed to us, packetBytes"
vector 144 MultiMecHost.mmecHost[1].wlan[0].mac.dcf packetDropQueueOverflow:vector(packetBytes) ETV
attr interpolationmode none
attr recordingmode vector(packetBytes)
attr source packetDropReasonIsQueueOverflow(packetDropped)
attr title "packet drops: queue overflow, packetBytes"
vector 145 MultiMecHost.mmecHost[1].wlan[0].mac.dcf packetDropRetryLimitReached:vector(packetBytes) ETV
attr interpolationmode none
attr recordingmode vector(packetBytes)
attr source packetDropReasonIsRetryLimitReached(packetDropped)
attr title "packet drops: retry limit reached, packetBytes"
vector 146 MultiMecHost.mmecHost[1].wlan[0].mac.dcf frameSequenceActive:vector ETV
attr autoWarmupFilter false
attr interpolationmode sample-hold
attr recordingmode vector
attr source warmup(count(frameSequenceStarted)-count(frameSequenceFinished))
attr title "frame sequence active"
vector 147 MultiMecHost.mmecHost[1].wlan[0].mac.dcf datarateSelected:vector ETV
attr interpolationmode none
attr recordingmode vector
attr title "datarates selected"
vector 148 MultiMecHost.mmecHost[1].wlan[0].mac.rx nav:vector ETV
attr interpolationmode linear
attr recordingmode vector
attr source navChanged
attr title "network allocation vector"
vector 149 MultiMecHost.mmecHost[1].wlan[0].mac packetSentToUpper:vector(packetBytes) ETV
attr interpolationmode none
attr recordingmode vector(packetBytes)
attr title "packets sent to upper layer, packetBytes"
vector 150 MultiMecHost.mmecHost[1].wlan[0].mac packetSentToLower:vector(packetBytes) ETV
attr interpolationmode none
attr recordingmode vector(packetBytes)
attr title "packets sent to lower layer, packetBytes"
vector 151 MultiMecHost.mmecHost[1].wlan[0].mac packetReceivedFromUpper:vector(packetBytes) ETV
attr interpolationmode none
attr recordingmode vector(packetBytes)
attr title "packets received from upper layer, packetBytes"
vector 152 MultiMecHost.mmecHost[1].wlan[0].mac packetReceivedFromLower:vector(packetBytes) ETV
attr interpolationmode none
attr recordingmode vector(packetBytes)
attr title "packets received from lower layer, packetBytes"
vector 153 MultiMecHost.mmecHost[1].wlan[0].mac packetDrop:vector(packetBytes) ETV
attr interpolationmode none
attr recordingmode vector(packetBytes)
attr source packetDropped
attr title "packet drops, packetBytes"
vector 154 MultiMecHost.mmecHost[1].wlan[0].mac packetDropIncorrectlyReceived:vector(packetBytes) ETV
attr interpolationmode none
attr recordingmode vector(packetBytes)
attr source packetDropReasonIsIncorrectlyReceived(packetDropped)
attr title "packet drops: incorrectly received, packetBytes"
vector 155 MultiMecHost.mmecHost[1].wlan[0].mac packetDropNotAddressedToUs:vector(packetBytes) ETV
attr interpolationmode none
attr recordingmode vector(packetBytes)
attr source packetDropReasonIsNotAddressedToUs(packetDropped)
attr title "packet drops: not addressed to us, packetBytes"
vector 156 MultiMecHost.mmecHost[1].wlan[0].mac packetDropQueueOverflow:vector(packetBytes) ETV
attr interpolationmode none
attr recordingmode vector(packetBytes)
attr source packetDropReasonIsQueueOverflow(packetDropped)
attr title "packet drops: queue overflow, packetBytes"
vector 157 MultiMecHost.mmecHost[1].wlan[0].mac packetDropRetryLimitReached:vector(packetBytes) ETV
attr interpolationmode none
attr recordingmode vector(packetBytes)
attr source packetDropReasonIsRetryLimitReached(packetDropped)
attr title "packet drops: retry limit reached, packetBytes"
vector 158 MultiMecHost.mmecHost[1].wlan[0].mac packetDropDuplicateDetected:vector(packetBytes) ETV
attr interpolationmode none
attr recordingmode vector(packetBytes)
attr source packetDropReasonIsDuplicateDetected(packetDropped)
attr title "packet drops: duplicate detected, packetBytes"
vector 159 MultiMecHost.mmecHost[1].wlan[0].mac packetDropOther:vector(packetBytes) ETV
attr interpolationmode none
attr recordingmode vector(packetBytes)
attr source packetDropReasonIsOther(packetDropped)
attr title "packet drops: other, packetBytes"
vector 160 MultiMecHost.mmecHost[1].wlan[0].radio radioMode:vector ETV
attr interpolationmode sample-hold
attr recordingmode vector
attr source radioModeChanged
attr title "Radio mode"
vector 161 MultiMecHost.mmecHost[1].wlan[0].radio receptionState:vector ETV
attr interpolationmode sample-hold
attr recordingmode vector
attr source receptionStateChanged
attr title "Radio reception state"
vector 162 MultiMecHost.mmecHost[1].wlan[0].radio transmissionState:vector ETV
attr interpolationmode sample-hold
attr recordingmode vector
attr source transmissionStateChanged
attr title "Radio transmission state"
vector 163 MultiMecHost.mmecHost[1].wlan[0].radio radioChannel:vector ETV
attr interpolationmode sample-hold
attr recordingmode vector
attr source radioChannelChanged
attr title "Radio channel"
vector 164 MultiMecHost.mmecHost[1].wlan[0] packetDropInterfaceDown:vector(packetBytes) ETV
attr interpolationmode none
attr recordingmode vector(packetBytes)
attr source packetDropReasonIsInterfaceDown(packetDropped)
attr title "packet drops: interface down, packetBytes"
vector 165 MultiMecHost.mmecHost[1].wlan[0] packetDropNoCarrier:vector(packetBytes) ETV
attr interpolationmode none
attr recordingmode vector(packetBytes)
attr source packetDropReasonIsNoCarrier(packetDropped)
attr title "packet drops: no carrier, packetBytes"
vector 166 MultiMecHost.mmecHost[2].lo[0].lo rcvdPkFromHl:vector(packetBytes) ETV
attr interpolationmode none
attr recordingmode vector(packetBytes)
attr source packetReceivedFromUpper
attr title "packets received from higher layer, packetBytes"
vector 167 MultiMecHost.mmecHost[2].lo[0].lo passedUpPk:vector(packetBytes) ETV
attr interpolationmode none
attr recordingmode vector(packetBytes)
attr source packetSentToUpper
attr title "packets passed to higher layer, packetBytes"
vector 168 MultiMecHost.mmecHost[2].lo[0] packetDropInterfaceDown:vector(packetBytes) ETV
attr interpolationmode none
attr recordingmode vector(packetBytes)
attr source packetDropReasonIsInterfaceDown(packetDropped)
attr title "packet drops: interface down, packetBytes"
vector 169 MultiMecHost.mmecHost[2].lo[0] packetDropNoCarrier:vector(packetBytes) ETV
attr interpolationmode none
attr recordingmode vector(packetBytes)
attr source packetDropReasonIsNoCarrier(packetDropped)
attr title "packet drops: no carrier, packetBytes"
vector 170 MultiMecHost.mmecHost[2].ipv4.ip packetDropAddressResolutionFailed:vector(packetBytes) ETV
attr interpolationmode none
attr recordingmode vector(packetBytes)
attr source packetDropReasonIsAddressResolutionFailed(packetDropped)
attr title "packet drop: address resolution failed, packetBytes"
vector 171 MultiMecHost.mmecHost[2].ipv4.ip packetDropHopLimitReached:vector(packetBytes) ETV
attr interpolationmode none
attr recordingmode vector(packetBytes)
attr source packetDropReasonIsHopLimitReached(packetDropped)
attr title "packet drop: hop limit reached, packetBytes"
vector 172 MultiMecHost.mmecHost[2].ipv4.ip packetDropForwardingDisabled:vector(packetBytes) ETV
attr interpolationmode none
attr recordingmode vector(packetBytes)
attr source packetDropReasonIsForwardingDisabled(packetDropped)
attr title "packet drop: forwarding disabled, packetBytes"
vector 173 MultiMecHost.mmecHost[2].ipv4.ip packetDropNoInterfaceFound:vector(packetBytes) ETV
attr interpolationmode none
attr recordingmode vector(packetBytes)
attr source packetDropReasonIsNoInterfaceFound(packetDropped)
attr title "packet drop: no interface found, packetBytes"
vector 174 MultiMecHost.mmecHost[2].ipv4.ip packetDropNoRouteFound:vector(packetBytes) ETV
attr interpolationmode none
attr recordingmode vector(packetBytes)
attr source packetDropReasonIsNoRouteFound(packetDropped)
attr title "packet drop: no route found, packetBytes"
vector 175 MultiMecHost.mmecHost[2].ipv4.ip packetDropUndefined:vector(packetBytes) ETV
attr interpolationmode none
attr recordingmode vector(packetBytes)
attr source packetDropReasonIsUndefined(packetDropped)
attr title "packet drop: undefined, packetBytes"
vector 176 MultiMecHost.mmecHost[2].ipv4.arp arpRequestSent:vector(packetBytes) ETV
attr recordingmode vector(packetBytes)
attr source arpRequestSent
attr title "ARP request sent, packetBytes"
vector 177 MultiMecHost.mmecHost[2].ipv4.arp arpReplySent:vector(packetBytes) ETV
attr recordingmode vector(packetBytes)
attr source arpReplySent
attr title "ARP replies sent, packetBytes"
vector 178 MultiMecHost.mmecHost[2].udp packetSent:vector(packetBytes) ETV
attr interpolationmode none
attr recordingmode vector(packetBytes)
attr source packetSent
attr title "packets sent, packetBytes"
vector 179 MultiMecHost.mmecHost[2].udp packetReceived:vector(packetBytes) ETV
attr interpolationmode none
attr recordingmode vector(packetBytes)
attr source packetReceived
attr title "packets received, packetBytes"
vector 180 MultiMecHost.mmecHost[2].udp passedUpPk:vector(count) ETV
attr interpolationmode none
attr recordingmode vector(count)
attr source packetSentToUpper
attr title "packets passed up, count"
vector 181 MultiMecHost.mmecHost[2].udp droppedPkWrongPort:vector(count) ETV
attr interpolationmode none
attr recordingmode vector(count)
attr source packetDropReasonIsNoPortFound(packetDropped)
attr title "packets dropped (wrong port), count"
vector 182 MultiMecHost.mmecHost[2].udp droppedPkBadChecksum:vector(count) ETV
attr interpolationmode none
attr recordingmode vector(count)
attr source packetDropReasonIsIncorrectlyReceived(packetDropped)
attr title "packets dropped (checksum error), count"
vector 183 MultiMecHost.mmecHost[2].app[0] packetReceived:vector(packetBytes) ETV
attr interpolationmode none
attr recordingmode vector(packetBytes)
attr source packetReceived
attr title "packets received, packetBytes"
vector 184 MultiMecHost.mmecHost[2].app[0] throughput:vector ETV
attr recordingmode vector
attr source throughput(packetReceived)
attr title throughput
attr unit bps
vector 185 MultiMecHost.mmecHost[2].app[0] packetSent:vector(packetBytes) ETV
attr interpolationmode none
attr recordingmode vector(packetBytes)
attr source packetSent
attr title "packets sent, packetBytes"
vector 186 MultiMecHost.mmecHost[2].app[0] rcvdPkLifetime:vector ETV
attr interpolationmode none
attr recordingmode vector
attr source dataAge(packetReceived)
attr title "received packet lifetime"
attr unit s
vector 187 MultiMecHost.mmecHost[2].app[0] rcvdPkSeqNo:vector ETV
attr interpolationmode none
attr recordingmode vector
attr source appPkSeqNo(packetReceived)
attr title "received packet sequence number"
vector 188 MultiMecHost.mmecHost[2].app[1] packetReceived:vector(packetBytes) ETV
attr interpolationmode none
attr recordingmode vector(packetBytes)
attr source packetReceived
attr title "packets received, packetBytes"
vector 189 MultiMecHost.mmecHost[2].app[1] throughput:vector ETV
attr recordingmode vector
attr source throughput(packetReceived)
attr title throughput
attr unit bps
vector 190 MultiMecHost.mmecHost[2].app[1] endToEndDelay:vector ETV
attr interpolationmode none
attr recordingmode vector
attr source dataAge(packetReceived)
attr title "end-to-end delay"
attr unit s
vector 191 MultiMecHost.mmecHost[2].app[1] rcvdPkSeqNo:vector ETV
attr interpolationmode none
attr recordingmode vector
attr source appPkSeqNo(packetReceived)
attr title "received packet sequence number"
vector 192 MultiMecHost.mmecHost[2].wlan[0].agent sentRequest:vector ETV
attr recordingmode vector
attr title "sent requests"
vector 193 MultiMecHost.mmecHost[2].wlan[0].agent acceptConfirm:vector ETV
attr recordingmode vector
attr title "accepted confirms"
vector 194 MultiMecHost.mmecHost[2].wlan[0].agent dropConfirm:vector ETV
attr recordingmode vector
attr title "dropped confirms"
vector 195 MultiMecHost.mmecHost[2].wlan[0].mac.dcf.channelAccess.pendingQueue queueLength:vector ETV
attr autoWarmupFilter false
attr interpolationmode sample-hold
attr recordingmode vector
attr source "warmup(atomic(constant0(packetPushEnded) + count(packetPushStarted) - count(packetPulled) - count(packetRemoved) - count(packetDropped)))"
attr title "queue length"
attr unit pk
vector 196 MultiMecHost.mmecHost[2].wlan[0].mac.dcf.channelAccess.pendingQueue queueBitLength:vector ETV
attr autoWarmupFilter false
attr interpolationmode sample-hold
attr recordingmode vector
attr source "warmup(atomic(constant0(packetPushEnded) + sum(packetLength(packetPushStarted)) - sum(packetLength(packetPulled)) - sum(packetLength(packetRemoved)) - sum(packetLength(packetDropped))))"
attr title "queue bit length"
attr unit b
vector 197 MultiMecHost.mmecHost[2].wlan[0].mac.dcf.channelAccess.pendingQueue queueingTime:vector ETV
attr interpolationmode none
attr recordingmode vector
attr source queueingTime(packetPulled)
attr title "queueing times"
attr unit s
vector 198 MultiMecHost.mmecHost[2].wlan[0].mac.dcf.channelAccess.pendingQueue incomingPacketLengths:vector ETV
attr interpolationmode none
attr recordingmode vector
attr source packetLength(packetPushStarted)
attr title "incoming packet lengths"
attr unit b
vector 199 MultiMecHost.mmecHost[2].wlan[0].mac.dcf.channelAccess.pendingQueue incomingDataRate:vector ETV
attr interpolationmode linear
attr recordingmode vector
attr source throughput(packetPushStarted)
attr title "incoming datarate"
attr unit bps
vector 200 MultiMecHost.mmecHost[2].wlan[0].mac.dcf.channelAccess.pendingQueue outgoingPacketLengths:vector ETV
attr interpolationmode none
attr recordingmode vector
attr source packetLength(packetPulled)
attr title "outgoing packet lengths"
attr unit b
vector 201 MultiMecHost.mmecHost[2].wlan[0].mac.dcf.channelAccess.pendingQueue outgoingDataRate:vector ETV
attr interpolationmode linear
attr recordingmode vector
attr source throughput(packetPulled)
attr title "outgoing datarate"
attr unit bps
vector 202 MultiMecHost.mmecHost[2].wlan[0].mac.dcf.channelAccess.pendingQueue droppedPacketLengthsQueueOverflow:vector ETV
attr interpolationmode none
attr recordingmode vector
attr source packetLength(packetDropReasonIsQueueOverflow(packetDropped))
attr title "dropped packet lengths: queue overflow"
attr unit b
vector 203 MultiMecHost.mmecHost[2].wlan[0].mac.dcf.channelAccess.pendingQueue flowQueueingTime:vector ETV
attr interpolationmode none
attr recordingmode vector
attr source queueingTime(demuxFlow(packetPulled))
attr title "flow queueing times"
attr unit s
vector 204 MultiMecHost.mmecHost[2].wlan[0].mac.dcf.channelAccess.pendingQueue flowIncomingDataRate:vector ETV
attr interpolationmode linear
attr recordingmode vector
attr source throughput(flowPacketLength(demuxFlow(packetPushStarted)))
attr title "flow specific incoming data rate"
attr unit bps
vector 205 MultiMecHost.mmecHost[2].wlan[0].mac.dcf.channelAccess.pendingQueue flowOutgoingDataRate:vector ETV
attr interpolationmode linear
attr recordingmode vector
attr source throughput(flowPacketLength(demuxFlow(packetPulled)))
attr title "flow specific outgoing data rate"
attr unit bps
vector 206 MultiMecHost.mmecHost[2].wlan[0].mac.dcf.channelAccess.inProgressFrames queueingTime:vector ETV
attr interpolationmode none
attr recordingmode vector
attr source queueingTime(packetDequeued)
attr title "queueing times"
vector 207 MultiMecHost.mmecHost[2].wlan[0].mac.dcf.channelAccess.inProgressFrames queueLength:vector ETV
attr autoWarmupFilter false
attr interpolationmode sample-hold
attr recordingmode vector
attr source "warmup(count(packetEnqueued) - count(packetDequeued))"
attr title "queue length"
vector 208 MultiMecHost.mmecHost[2].wlan[0].mac.dcf.channelAccess.contention backoffPeriodGenerated:vector ETV
attr interpolationmode none
attr recordingmode vector
attr title "backoff periods"
vector 209 MultiMecHost.mmecHost[2].wlan[0].mac.dcf.channelAccess.contention backoffActive:vector ETV
attr autoWarmupFilter false
attr interpolationmode sample-hold
attr recordingmode vector
attr source warmup(count(backoffStarted)-count(backoffStopped))
attr title "backoff active"
vector 210 MultiMecHost.mmecHost[2].wlan[0].mac.dcf.channelAccess.contention stateChanged:vector ETV
attr enum IDLE,DEFER,IFS_AND_BACKOFF
attr interpolationmode none
attr recordingmode vector
attr title "contention state changed"
attr type enum
vector 211 MultiMecHost.mmecHost[2].wlan[0].mac.dcf.recipientMacDataService packetDropDuplicateDetected:vector(packetBytes) ETV
attr interpolationmode none
attr recordingmode vector(packetBytes)
attr source packetDropReasonIsDuplicateDetected(packetDropped)
attr title "packet drops: duplicate detected, packetBytes"
vector 212 MultiMecHost.mmecHost[2].wlan[0].mac.dcf.recoveryProcedure contentionWindowChanged:vector ETV
attr interpolationmode sample-hold
attr recordingmode vector
attr title "contention window"
vector 213 MultiMecHost.mmecHost[2].wlan[0].mac.dcf packetSentToPeer:vector(packetBytes) ETV
attr interpolationmode none
attr recordingmode vector(packetBytes)
attr title "packets sent, packetBytes"
vector 214 MultiMecHost.mmecHost[2].wlan[0].mac.dcf packetSentToPeerUnicast:vector(packetBytes) ETV
attr interpolationmode none
attr recordingmode vector(packetBytes)
attr source ieee80211Unicast(packetSentToPeer)
attr title "packets sent: unicast, packetBytes"
vector 215 MultiMecHost.mmecHost[2].wlan[0].mac.dcf packetSentToPeerMulticast:vector(packetBytes) ETV
attr interpolationmode none
attr recordingmode vector(packetBytes)
attr source ieee80211Multicast(packetSentToPeer)
attr title "packets sent: multicast, packetBytes"
vector 216 MultiMecHost.mmecHost[2].wlan[0].mac.dcf packetSentToPeerBroadcast:vector(packetBytes) ETV
attr interpolationmode none
attr recordingmode vector(packetBytes)
attr source ieee80211Broadcast(packetSentToPeer)
attr title "packets sent: broadcast , packetBytes"
vector 217 MultiMecHost.mmecHost[2].wlan[0].mac.dcf packetSentToPeerWithRetry:vector(packetBytes) ETV
attr interpolationmode none
attr recordingmode vector(packetBytes)
attr source ieee80211Retry(packetSentToPeer)
attr title "packets sent: with retry, packetBytes"
vector 218 MultiMecHost.mmecHost[2].wlan[0].mac.dcf packetSentToPeerWithoutRetry:vector(packetBytes) ETV
attr interpolationmode none
attr recordingmode vector(packetBytes)
attr source ieee80211NotRetry(packetSentToPeer)
attr title "packets sent: without retry, packetBytes"
vector 219 MultiMecHost.mmecHost[2].wlan[0].mac.dcf packetReceivedFromPeer:vector(packetBytes) ETV
attr interpolationmode none
attr recordingmode vector(packetBytes)
attr title "packets received, packetBytes"
vector 220 MultiMecHost.mmecHost[2].wlan[0].mac.dcf packetReceivedFromPeerUnicast:vector(packetBytes) ETV
attr interpolationmode none
attr recordingmode vector(packetBytes)
attr source ieee80211Unicast(packetReceivedFromPeer)
attr title "packets received: unicast, packetBytes"
vector 221 MultiMecHost.mmecHost[2].wlan[0].mac.dcf packetReceivedFromPeerMulticast:vector(packetBytes) ETV
attr interpolationmode none
attr recordingmode vector(packetBytes)
attr source ieee80211Multicast(packetReceivedFromPeer)
attr title "packets received: multicast, packetBytes"
vector 222 MultiMecHost.mmecHost[2].wlan[0].mac.dcf packetReceivedFromPeerBroadcast:vector(packetBytes) ETV
attr interpolationmode none
attr recordingmode vector(packetBytes)
attr source ieee80211Broadcast(packetReceivedFromPeer)
attr title "packets received: broadcast, packetBytes"
vector 223 MultiMecHost.mmecHost[2].wlan[0].mac.dcf packetReceivedFromPeerWithRetry:vector(packetBytes) ETV
attr interpolationmode none
attr recordingmode vector(packetBytes)
attr source ieee80211Retry(packetReceivedFromPeer)
attr title "packets received: with retry, packetBytes"
vector 224 MultiMecHost.mmecHost[2].wlan[0].mac.dcf packetReceivedFromPeerWithoutRetry:vector(packetBytes) ETV
attr interpolationmode none
attr recordingmode vector(packetBytes)
attr source ieee80211NotRetry(packetReceivedFromPeer)
attr title "packets received: without retry, packetBytes"
vector 225 MultiMecHost.mmecHost[2].wlan[0].mac.dcf packetDrop:vector(packetBytes) ETV
attr interpolationmode none
attr recordingmode vector(packetBytes)
attr source packetDropped
attr title "packet drops, packetBytes"
vector 226 MultiMecHost.mmecHost[2].wlan[0].mac.dcf packetDropNotAddressedToUs:vector(packetBytes) ETV
attr interpolationmode none
attr recordingmode vector(packetBytes)
attr source packetDropReasonIsNotAddressedToUs(packetDropped)
attr title "packet drops: not addressed to us, packetBytes"
vector 227 MultiMecHost.mmecHost[2].wlan[0].mac.dcf packetDropQueueOverflow:vector(packetBytes) ETV
attr interpolationmode none
attr recordingmode vector(packetBytes)
attr source packetDropReasonIsQueueOverflow(packetDropped)
attr title "packet drops: queue overflow, packetBytes"
vector 228 MultiMecHost.mmecHost[2].wlan[0].mac.dcf packetDropRetryLimitReached:vector(packetBytes) ETV
attr interpolationmode none
attr recordingmode vector(packetBytes)
attr source packetDropReasonIsRetryLimitReached(packetDropped)
attr title "packet drops: retry limit reached, packetBytes"
vector 229 MultiMecHost.mmecHost[2].wlan[0].mac.dcf frameSequenceActive:vector ETV
attr autoWarmupFilter false
attr interpolationmode sample-hold
attr recordingmode vector
attr source warmup(count(frameSequenceStarted)-count(frameSequenceFinished))
attr title "frame sequence active"
vector 230 MultiMecHost.mmecHost[2].wlan[0].mac.dcf datarateSelected:vector ETV
attr interpolationmode none
attr recordingmode vector
attr title "datarates selected"
vector 231 MultiMecHost.mmecHost[2].wlan[0].mac.rx nav:vector ETV
attr interpolationmode linear
attr recordingmode vector
attr source navChanged
attr title "network allocation vector"
vector 232 MultiMecHost.mmecHost[2].wlan[0].mac packetSentToUpper:vector(packetBytes) ETV
attr interpolationmode none
attr recordingmode vector(packetBytes)
attr title "packets sent to upper layer, packetBytes"
vector 233 MultiMecHost.mmecHost[2].wlan[0].mac packetSentToLower:vector(packetBytes) ETV
attr interpolationmode none
attr recordingmode vector(packetBytes)
attr title "packets sent to lower layer, packetBytes"
vector 234 MultiMecHost.mmecHost[2].wlan[0].mac packetReceivedFromUpper:vector(packetBytes) ETV
attr interpolationmode none
attr recordingmode vector(packetBytes)
attr title "packets received from upper layer, packetBytes"
vector 235 MultiMecHost.mmecHost[2].wlan[0].mac packetReceivedFromLower:vector(packetBytes) ETV
attr interpolationmode none
attr recordingmode vector(packetBytes)
attr title "packets received from lower layer, packetBytes"
vector 236 MultiMecHost.mmecHost[2].wlan[0].mac packetDrop:vector(packetBytes) ETV
attr interpolationmode none
attr recordingmode vector(packetBytes)
attr source packetDropped
attr title "packet drops, packetBytes"
vector 237 MultiMecHost.mmecHost[2].wlan[0].mac packetDropIncorrectlyReceived:vector(packetBytes) ETV
attr interpolationmode none
attr recordingmode vector(packetBytes)
attr source packetDropReasonIsIncorrectlyReceived(packetDropped)
attr title "packet drops: incorrectly received, packetBytes"
vector 238 MultiMecHost.mmecHost[2].wlan[0].mac packetDropNotAddressedToUs:vector(packetBytes) ETV
attr interpolationmode none
attr recordingmode vector(packetBytes)
attr source packetDropReasonIsNotAddressedToUs(packetDropped)
attr title "packet drops: not addressed to us, packetBytes"
vector 239 MultiMecHost.mmecHost[2].wlan[0].mac packetDropQueueOverflow:vector(packetBytes) ETV
attr interpolationmode none
attr recordingmode vector(packetBytes)
attr source packetDropReasonIsQueueOverflow(packetDropped)
attr title "packet drops: queue overflow, packetBytes"
vector 240 MultiMecHost.mmecHost[2].wlan[0].mac packetDropRetryLimitReached:vector(packetBytes) ETV
attr interpolationmode none
attr recordingmode vector(packetBytes)
attr source packetDropReasonIsRetryLimitReached(packetDropped)
attr title "packet drops: retry limit reached, packetBytes"
vector 241 MultiMecHost.mmecHost[2].wlan[0].mac packetDropDuplicateDetected:vector(packetBytes) ETV
attr interpolationmode none
attr recordingmode vector(packetBytes)
attr source packetDropReasonIsDuplicateDetected(packetDropped)
attr title "packet drops: duplicate detected, packetBytes"
vector 242 MultiMecHost.mmecHost[2].wlan[0].mac packetDropOther:vector(packetBytes) ETV
attr interpolationmode none
attr recordingmode vector(packetBytes)
attr source packetDropReasonIsOther(packetDropped)
attr title "packet drops: other, packetBytes"
vector 243 MultiMecHost.mmecHost[2].wlan[0].radio radioMode:vector ETV
attr interpolationmode sample-hold
attr recordingmode vector
attr source radioModeChanged
attr title "Radio mode"
vector 244 MultiMecHost.mmecHost[2].wlan[0].radio receptionState:vector ETV
attr interpolationmode sample-hold
attr recordingmode vector
attr source receptionStateChanged
attr title "Radio reception state"
vector 245 MultiMecHost.mmecHost[2].wlan[0].radio transmissionState:vector ETV
attr interpolationmode sample-hold
attr recordingmode vector
attr source transmissionStateChanged
attr title "Radio transmission state"
vector 246 MultiMecHost.mmecHost[2].wlan[0].radio radioChannel:vector ETV
attr interpolationmode sample-hold
attr recordingmode vector
attr source radioChannelChanged
attr title "Radio channel"
vector 247 MultiMecHost.mmecHost[2].wlan[0] packetDropInterfaceDown:vector(packetBytes) ETV
attr interpolationmode none
attr recordingmode vector(packetBytes)
attr source packetDropReasonIsInterfaceDown(packetDropped)
attr title "packet drops: interface down, packetBytes"
vector 248 MultiMecHost.mmecHost[2].wlan[0] packetDropNoCarrier:vector(packetBytes) ETV
attr interpolationmode none
attr recordingmode vector(packetBytes)
attr source packetDropReasonIsNoCarrier(packetDropped)
attr title "packet drops: no carrier, packetBytes"
vector 249 MultiMecHost.ue[3].lo[0].lo rcvdPkFromHl:vector(packetBytes) ETV
attr interpolationmode none
attr recordingmode vector(packetBytes)
attr source packetReceivedFromUpper
attr title "packets received from higher layer, packetBytes"
vector 250 MultiMecHost.ue[3].lo[0].lo passedUpPk:vector(packetBytes) ETV
attr interpolationmode none
attr recordingmode vector(packetBytes)
attr source packetSentToUpper
attr title "packets passed to higher layer, packetBytes"
vector 251 MultiMecHost.ue[3].lo[0] packetDropInterfaceDown:vector(packetBytes) ETV
attr interpolationmode none
attr recordingmode vector(packetBytes)
attr source packetDropReasonIsInterfaceDown(packetDropped)
attr title "packet drops: interface down, packetBytes"
vector 252 MultiMecHost.ue[3].lo[0] packetDropNoCarrier:vector(packetBytes) ETV
attr interpolationmode none
attr recordingmode vector(packetBytes)
attr source packetDropReasonIsNoCarrier(packetDropped)
attr title "packet drops: no carrier, packetBytes"
vector 253 MultiMecHost.ue[3].ipv4.ip packetDropAddressResolutionFailed:vector(packetBytes) ETV
attr interpolationmode none
attr recordingmode vector(packetBytes)
attr source packetDropReasonIsAddressResolutionFailed(packetDropped)
attr title "packet drop: address resolution failed, packetBytes"
vector 254 MultiMecHost.ue[3].ipv4.ip packetDropHopLimitReached:vector(packetBytes) ETV
attr interpolationmode none
attr recordingmode vector(packetBytes)
attr source packetDropReasonIsHopLimitReached(packetDropped)
attr title "packet drop: hop limit reached, packetBytes"
vector 255 MultiMecHost.ue[3].ipv4.ip packetDropForwardingDisabled:vector(packetBytes) ETV
attr interpolationmode none
attr recordingmode vector(packetBytes)
attr source packetDropReasonIsForwardingDisabled(packetDropped)
attr title "packet drop: forwarding disabled, packetBytes"
vector 256 MultiMecHost.ue[3].ipv4.ip packetDropNoInterfaceFound:vector(packetBytes) ETV
attr interpolationmode none
attr recordingmode vector(packetBytes)
attr source packetDropReasonIsNoInterfaceFound(packetDropped)
attr title "packet drop: no interface found, packetBytes"
vector 257 MultiMecHost.ue[3].ipv4.ip packetDropNoRouteFound:vector(packetBytes) ETV
attr interpolationmode none
attr recordingmode vector(packetBytes)
attr source packetDropReasonIsNoRouteFound(packetDropped)
attr title "packet drop: no route found, packetBytes"
vector 258 MultiMecHost.ue[3].ipv4.ip packetDropUndefined:vector(packetBytes) ETV
attr interpolationmode none
attr recordingmode vector(packetBytes)
attr source packetDropReasonIsUndefined(packetDropped)
attr title "packet drop: undefined, packetBytes"
vector 259 MultiMecHost.ue[3].ipv4.arp arpRequestSent:vector(packetBytes) ETV
attr recordingmode vector(packetBytes)
attr source arpRequestSent
attr title "ARP request sent, packetBytes"
vector 260 MultiMecHost.ue[3].ipv4.arp arpReplySent:vector(packetBytes) ETV
attr recordingmode vector(packetBytes)
attr source arpReplySent
attr title "ARP replies sent, packetBytes"
vector 261 MultiMecHost.ue[3].udp packetSent:vector(packetBytes) ETV
attr interpolationmode none
attr recordingmode vector(packetBytes)
attr source packetSent
attr title "packets sent, packetBytes"
vector 262 MultiMecHost.ue[3].udp packetReceived:vector(packetBytes) ETV
attr interpolationmode none
attr recordingmode vector(packetBytes)
attr source packetReceived
attr title "packets received, packetBytes"
vector 263 MultiMecHost.ue[3].udp passedUpPk:vector(count) ETV
attr interpolationmode none
attr recordingmode vector(count)
attr source packetSentToUpper
attr title "packets passed up, count"
vector 264 MultiMecHost.ue[3].udp droppedPkWrongPort:vector(count) ETV
attr interpolationmode none
attr recordingmode vector(count)
attr source packetDropReasonIsNoPortFound(packetDropped)
attr title "packets dropped (wrong port), count"
vector 265 MultiMecHost.ue[3].udp droppedPkBadChecksum:vector(count) ETV
attr interpolationmode none
attr recordingmode vector(count)
attr source packetDropReasonIsIncorrectlyReceived(packetDropped)
attr title "packets dropped (checksum error), count"
vector 266 MultiMecHost.ue[3].app[0] packetReceived:vector(packetBytes) ETV
attr interpolationmode none
attr recordingmode vector(packetBytes)
attr source packetReceived
attr title "packets received, packetBytes"
vector 267 MultiMecHost.ue[3].app[0] throughput:vector ETV
attr recordingmode vector
attr source throughput(packetReceived)
attr title throughput
attr unit bps
vector 268 MultiMecHost.ue[3].app[0] packetSent:vector(packetBytes) ETV
attr interpolationmode none
attr recordingmode vector(packetBytes)
attr source packetSent
attr title "packets sent, packetBytes"
vector 269 MultiMecHost.ue[3].app[0] rcvdPkLifetime:vector ETV
attr interpolationmode none
attr recordingmode vector
attr source dataAge(packetReceived)
attr title "received packet lifetime"
attr unit s
vector 270 MultiMecHost.ue[3].app[0] rcvdPkSeqNo:vector ETV
attr interpolationmode none
attr recordingmode vector
attr source appPkSeqNo(packetReceived)
attr title "received packet sequence number"
vector 271 MultiMecHost.ue[3].app[1] packetReceived:vector(packetBytes) ETV
attr interpolationmode none
attr recordingmode vector(packetBytes)
attr source packetReceived
attr title "packets received, packetBytes"
vector 272 MultiMecHost.ue[3].app[1] throughput:vector ETV
attr recordingmode vector
attr source throughput(packetReceived)
attr title throughput
attr unit bps
vector 273 MultiMecHost.ue[3].app[1] endToEndDelay:vector ETV
attr interpolationmode none
attr recordingmode vector
attr source dataAge(packetReceived)
attr title "end-to-end delay"
attr unit s
vector 274 MultiMecHost.ue[3].app[1] rcvdPkSeqNo:vector ETV
attr interpolationmode none
attr recordingmode vector
attr source appPkSeqNo(packetReceived)
attr title "received packet sequence number"
vector 275 MultiMecHost.ue[3].wlan[0].agent sentRequest:vector ETV
attr recordingmode vector
attr title "sent requests"
vector 276 MultiMecHost.ue[3].wlan[0].agent acceptConfirm:vector ETV
attr recordingmode vector
attr title "accepted confirms"
vector 277 MultiMecHost.ue[3].wlan[0].agent dropConfirm:vector ETV
attr recordingmode vector
attr title "dropped confirms"
vector 278 MultiMecHost.ue[3].wlan[0].mac.dcf.channelAccess.pendingQueue queueLength:vector ETV
attr autoWarmupFilter false
attr interpolationmode sample-hold
attr recordingmode vector
attr source "warmup(atomic(constant0(packetPushEnded) + count(packetPushStarted) - count(packetPulled) - count(packetRemoved) - count(packetDropped)))"
attr title "queue length"
attr unit pk
vector 279 MultiMecHost.ue[3].wlan[0].mac.dcf.channelAccess.pendingQueue queueBitLength:vector ETV
attr autoWarmupFilter false
attr interpolationmode sample-hold
attr recordingmode vector
attr source "warmup(atomic(constant0(packetPushEnded) + sum(packetLength(packetPushStarted)) - sum(packetLength(packetPulled)) - sum(packetLength(packetRemoved)) - sum(packetLength(packetDropped))))"
attr title "queue bit length"
attr unit b
vector 280 MultiMecHost.ue[3].wlan[0].mac.dcf.channelAccess.pendingQueue queueingTime:vector ETV
attr interpolationmode none
attr recordingmode vector
attr source queueingTime(packetPulled)
attr title "queueing times"
attr unit s
vector 281 MultiMecHost.ue[3].wlan[0].mac.dcf.channelAccess.pendingQueue incomingPacketLengths:vector ETV
attr interpolationmode none
attr recordingmode vector
attr source packetLength(packetPushStarted)
attr title "incoming packet lengths"
attr unit b
vector 282 MultiMecHost.ue[3].wlan[0].mac.dcf.channelAccess.pendingQueue incomingDataRate:vector ETV
attr interpolationmode linear
attr recordingmode vector
attr source throughput(packetPushStarted)
attr title "incoming datarate"
attr unit bps
vector 283 MultiMecHost.ue[3].wlan[0].mac.dcf.channelAccess.pendingQueue outgoingPacketLengths:vector ETV
attr interpolationmode none
attr recordingmode vector
attr source packetLength(packetPulled)
attr title "outgoing packet lengths"
attr unit b
vector 284 MultiMecHost.ue[3].wlan[0].mac.dcf.channelAccess.pendingQueue outgoingDataRate:vector ETV
attr interpolationmode linear
attr recordingmode vector
attr source throughput(packetPulled)
attr title "outgoing datarate"
attr unit bps
vector 285 MultiMecHost.ue[3].wlan[0].mac.dcf.channelAccess.pendingQueue droppedPacketLengthsQueueOverflow:vector ETV
attr interpolationmode none
attr recordingmode vector
attr source packetLength(packetDropReasonIsQueueOverflow(packetDropped))
attr title "dropped packet lengths: queue overflow"
attr unit b
vector 286 MultiMecHost.ue[3].wlan[0].mac.dcf.channelAccess.pendingQueue flowQueueingTime:vector ETV
attr interpolationmode none
attr recordingmode vector
attr source queueingTime(demuxFlow(packetPulled))
attr title "flow queueing times"
attr unit s
vector 287 MultiMecHost.ue[3].wlan[0].mac.dcf.channelAccess.pendingQueue flowIncomingDataRate:vector ETV
attr interpolationmode linear
attr recordingmode vector
attr source throughput(flowPacketLength(demuxFlow(packetPushStarted)))
attr title "flow specific incoming data rate"
attr unit bps
vector 288 MultiMecHost.ue[3].wlan[0].mac.dcf.channelAccess.pendingQueue flowOutgoingDataRate:vector ETV
attr interpolationmode linear
attr recordingmode vector
attr source throughput(flowPacketLength(demuxFlow(packetPulled)))
attr title "flow specific outgoing data rate"
attr unit bps
vector 289 MultiMecHost.ue[3].wlan[0].mac.dcf.channelAccess.inProgressFrames queueingTime:vector ETV
attr interpolationmode none
attr recordingmode vector
attr source queueingTime(packetDequeued)
attr title "queueing times"
vector 290 MultiMecHost.ue[3].wlan[0].mac.dcf.channelAccess.inProgressFrames queueLength:vector ETV
attr autoWarmupFilter false
attr interpolationmode sample-hold
attr recordingmode vector
attr source "warmup(count(packetEnqueued) - count(packetDequeued))"
attr title "queue length"
vector 291 MultiMecHost.ue[3].wlan[0].mac.dcf.channelAccess.contention backoffPeriodGenerated:vector ETV
attr interpolationmode none
attr recordingmode vector
attr title "backoff periods"
vector 292 MultiMecHost.ue[3].wlan[0].mac.dcf.channelAccess.contention backoffActive:vector ETV
attr autoWarmupFilter false
attr interpolationmode sample-hold
attr recordingmode vector
attr source warmup(count(backoffStarted)-count(backoffStopped))
attr title "backoff active"
vector 293 MultiMecHost.ue[3].wlan[0].mac.dcf.channelAccess.contention stateChanged:vector ETV
attr enum IDLE,DEFER,IFS_AND_BACKOFF
attr interpolationmode none
attr recordingmode vector
attr title "contention state changed"
attr type enum
vector 294 MultiMecHost.ue[3].wlan[0].mac.dcf.recipientMacDataService packetDropDuplicateDetected:vector(packetBytes) ETV
attr interpolationmode none
attr recordingmode vector(packetBytes)
attr source packetDropReasonIsDuplicateDetected(packetDropped)
attr title "packet drops: duplicate detected, packetBytes"
vector 295 MultiMecHost.ue[3].wlan[0].mac.dcf.recoveryProcedure contentionWindowChanged:vector ETV
attr interpolationmode sample-hold
attr recordingmode vector
attr title "contention window"
vector 296 MultiMecHost.ue[3].wlan[0].mac.dcf packetSentToPeer:vector(packetBytes) ETV
attr interpolationmode none
attr recordingmode vector(packetBytes)
attr title "packets sent, packetBytes"
vector 297 MultiMecHost.ue[3].wlan[0].mac.dcf packetSentToPeerUnicast:vector(packetBytes) ETV
attr interpolationmode none
attr recordingmode vector(packetBytes)
attr source ieee80211Unicast(packetSentToPeer)
attr title "packets sent: unicast, packetBytes"
vector 298 MultiMecHost.ue[3].wlan[0].mac.dcf packetSentToPeerMulticast:vector(packetBytes) ETV
attr interpolationmode none
attr recordingmode vector(packetBytes)
attr source ieee80211Multicast(packetSentToPeer)
attr title "packets sent: multicast, packetBytes"
vector 299 MultiMecHost.ue[3].wlan[0].mac.dcf packetSentToPeerBroadcast:vector(packetBytes) ETV
attr interpolationmode none
attr recordingmode vector(packetBytes)
attr source ieee80211Broadcast(packetSentToPeer)
attr title "packets sent: broadcast , packetBytes"
vector 300 MultiMecHost.ue[3].wlan[0].mac.dcf packetSentToPeerWithRetry:vector(packetBytes) ETV
attr interpolationmode none
attr recordingmode vector(packetBytes)
attr source ieee80211Retry(packetSentToPeer)
attr title "packets sent: with retry, packetBytes"
vector 301 MultiMecHost.ue[3].wlan[0].mac.dcf packetSentToPeerWithoutRetry:vector(packetBytes) ETV
attr interpolationmode none
attr recordingmode vector(packetBytes)
attr source ieee80211NotRetry(packetSentToPeer)
attr title "packets sent: without retry, packetBytes"
vector 302 MultiMecHost.ue[3].wlan[0].mac.dcf packetReceivedFromPeer:vector(packetBytes) ETV
attr interpolationmode none
attr recordingmode vector(packetBytes)
attr title "packets received, packetBytes"
vector 303 MultiMecHost.ue[3].wlan[0].mac.dcf packetReceivedFromPeerUnicast:vector(packetBytes) ETV
attr interpolationmode none
attr recordingmode vector(packetBytes)
attr source ieee80211Unicast(packetReceivedFromPeer)
attr title "packets received: unicast, packetBytes"
vector 304 MultiMecHost.ue[3].wlan[0].mac.dcf packetReceivedFromPeerMulticast:vector(packetBytes) ETV
attr interpolationmode none
attr recordingmode vector(packetBytes)
attr source ieee80211Multicast(packetReceivedFromPeer)
attr title "packets received: multicast, packetBytes"
vector 305 MultiMecHost.ue[3].wlan[0].mac.dcf packetReceivedFromPeerBroadcast:vector(packetBytes) ETV
attr interpolationmode none
attr recordingmode vector(packetBytes)
attr source ieee80211Broadcast(packetReceivedFromPeer)
attr title "packets received: broadcast, packetBytes"
vector 306 MultiMecHost.ue[3].wlan[0].mac.dcf packetReceivedFromPeerWithRetry:vector(packetBytes) ETV
attr interpolationmode none
attr recordingmode vector(packetBytes)
attr source ieee80211Retry(packetReceivedFromPeer)
attr title "packets received: with retry, packetBytes"
vector 307 MultiMecHost.ue[3].wlan[0].mac.dcf packetReceivedFromPeerWithoutRetry:vector(packetBytes) ETV
attr interpolationmode none
attr recordingmode vector(packetBytes)
attr source ieee80211NotRetry(packetReceivedFromPeer)
attr title "packets received: without retry, packetBytes"
vector 308 MultiMecHost.ue[3].wlan[0].mac.dcf packetDrop:vector(packetBytes) ETV
attr interpolationmode none
attr recordingmode vector(packetBytes)
attr source packetDropped
attr title "packet drops, packetBytes"
vector 309 MultiMecHost.ue[3].wlan[0].mac.dcf packetDropNotAddressedToUs:vector(packetBytes) ETV
attr interpolationmode none
attr recordingmode vector(packetBytes)
attr source packetDropReasonIsNotAddressedToUs(packetDropped)
attr title "packet drops: not addressed to us, packetBytes"
vector 310 MultiMecHost.ue[3].wlan[0].mac.dcf packetDropQueueOverflow:vector(packetBytes) ETV
attr interpolationmode none
attr recordingmode vector(packetBytes)
attr source packetDropReasonIsQueueOverflow(packetDropped)
attr title "packet drops: queue overflow, packetBytes"
vector 311 MultiMecHost.ue[3].wlan[0].mac.dcf packetDropRetryLimitReached:vector(packetBytes) ETV
attr interpolationmode none
attr recordingmode vector(packetBytes)
attr source packetDropReasonIsRetryLimitReached(packetDropped)
attr title "packet drops: retry limit reached, packetBytes"
vector 312 MultiMecHost.ue[3].wlan[0].mac.dcf frameSequenceActive:vector ETV
attr autoWarmupFilter false
attr interpolationmode sample-hold
attr recordingmode vector
attr source warmup(count(frameSequenceStarted)-count(frameSequenceFinished))
attr title "frame sequence active"
vector 313 MultiMecHost.ue[3].wlan[0].mac.dcf datarateSelected:vector ETV
attr interpolationmode none
attr recordingmode vector
attr title "datarates selected"
vector 314 MultiMecHost.ue[3].wlan[0].mac.rx nav:vector ETV
attr interpolationmode linear
attr recordingmode vector
attr source navChanged
attr title "network allocation vector"
vector 315 MultiMecHost.ue[3].wlan[0].mac packetSentToUpper:vector(packetBytes) ETV
attr interpolationmode none
attr recordingmode vector(packetBytes)
attr title "packets sent to upper layer, packetBytes"
vector 316 MultiMecHost.ue[3].wlan[0].mac packetSentToLower:vector(packetBytes) ETV
attr interpolationmode none
attr recordingmode vector(packetBytes)
attr title "packets sent to lower layer, packetBytes"
vector 317 MultiMecHost.ue[3].wlan[0].mac packetReceivedFromUpper:vector(packetBytes) ETV
attr interpolationmode none
attr recordingmode vector(packetBytes)
attr title "packets received from upper layer, packetBytes"
vector 318 MultiMecHost.ue[3].wlan[0].mac packetReceivedFromLower:vector(packetBytes) ETV
attr interpolationmode none
attr recordingmode vector(packetBytes)
attr title "packets received from lower layer, packetBytes"
vector 319 MultiMecHost.ue[3].wlan[0].mac packetDrop:vector(packetBytes) ETV
attr interpolationmode none
attr recordingmode vector(packetBytes)
attr source packetDropped
attr title "packet drops, packetBytes"
[...]
538	3063	11.504109492562	3.8e-05
538	3336	11.904109492562	3.8e-05
538	3652	12.304109492562	3.8e-05
538	3925	12.704109492562	3.8e-05
538	4241	13.104109492562	3.8e-05
538	4514	13.504109492562	3.8e-05
538	4787	13.904109492562	3.8e-05
539	2717	11	0
539	2717	11	0
539	2782	11.104071492562	1
539	2791	11.104109492562	0
539	3054	11.504071492562	1
539	3063	11.504109492562	0
539	3327	11.904071492562	1
539	3336	11.904109492562	0
539	3643	12.304071492562	1
539	3652	12.304109492562	0
539	3916	12.704071492562	1
539	3925	12.704109492562	0
539	4232	13.104071492562	1
539	4241	13.104109492562	0
539	4505	13.504071492562	1
539	4514	13.504109492562	0
539	4778	13.904071492562	1
539	4787	13.904109492562	0
540	2780	11.104071492562	3
540	3052	11.504071492562	9
540	3325	11.904071492562	31
540	3641	12.304071492562	20
540	3914	12.704071492562	1
540	4230	13.104071492562	19
540	4503	13.504071492562	13
540	4776	13.904071492562	2
541	2717	11	0
541	2717	11	0
541	2780	11.104071492562	1
541	2781	11.104071492562	0
541	3052	11.504071492562	1
541	3053	11.504071492562	0
541	3325	11.904071492562	1
541	3326	11.904071492562	0
541	3641	12.304071492562	1
541	3642	12.304071492562	0
541	3914	12.704071492562	1
541	3915	12.704071492562	0
541	4230	13.104071492562	1
541	4231	13.104071492562	0
541	4503	13.504071492562	1
541	4504	13.504071492562	0
541	4776	13.904071492562	1
541	4777	13.904071492562	0
542	2717	11	0
542	2717	11	0
542	2780	11.104071492562	0
542	2780	11.104071492562	2
542	2781	11.104071492562	2
542	2781	11.104071492562	0
542	2783	11.104071492562	0
542	2783	11.104071492562	0
542	2792	11.104109492562	0
542	2792	11.104109492562	0
542	2823	11.155900569461	0
542	2823	11.155900569461	0
542	2841	11.155938569461	0
542	2841	11.155938569461	0
542	2877	11.264644141198	0
542	2877	11.264644141198	0
542	2887	11.264682141198	0
542	2887	11.264682141198	0
542	2914	11.277854114202	0
542	2914	11.277854114202	0
542	2932	11.277892114202	0
542	2932	11.277892114202	0
542	2942	11.288443836722	0
542	2942	11.288443836722	0
542	2950	11.288481836722	0
542	2950	11.288481836722	0
542	2981	11.308669280548	0
542	2981	11.308669280548	0
542	2999	11.308707280548	0
542	2999	11.308707280548	0
542	3014	11.346298861044	0
542	3014	11.346298861044	0
542	3032	11.346336861044	0
542	3032	11.346336861044	0
542	3052	11.504071492562	0
542	3052	11.504071492562	2
542	3053	11.504071492562	2
542	3053	11.504071492562	0
542	3055	11.504071492562	0
542	3055	11.504071492562	0
542	3064	11.504109492562	0
542	3064	11.504109492562	0
542	3095	11.555900569461	0
542	3095	11.555900569461	0
542	3113	11.555938569461	0
542	3113	11.555938569461	0
542	3150	11.664644141198	0
542	3150	11.664644141198	0
542	3160	11.664682141198	0
542	3160	11.664682141198	0
542	3187	11.677854114202	0
542	3187	11.677854114202	0
542	3205	11.677892114202	0
542	3205	11.677892114202	0
542	3215	11.688443836722	0
542	3215	11.688443836722	0
542	3223	11.688481836722	0
542	3223	11.688481836722	0
542	3254	11.708669280548	0
542	3254	11.708669280548	0
542	3272	11.708707280548	0
542	3272	11.708707280548	0
542	3287	11.746298861044	0
542	3287	11.746298861044	0
542	3305	11.746336861044	0
542	3305	11.746336861044	0
542	3325	11.904071492562	0
542	3325	11.904071492562	2
542	3326	11.904071492562	2
542	3326	11.904071492562	0
542	3328	11.904071492562	0
542	3328	11.904071492562	0
542	3337	11.904109492562	0
542	3337	11.904109492562	0
542	3368	11.955900569461	0
542	3368	11.955900569461	0
542	3386	11.955938569461	0
542	3386	11.955938569461	0
542	3466	12.064644151471	0
542	3466	12.064644151471	0
542	3476	12.064682151471	0
542	3476	12.064682151471	0
542	3503	12.077854088735	0
542	3503	12.077854088735	0
542	3521	12.077892088735	0
542	3521	12.077892088735	0
542	3531	12.088443840082	0
542	3531	12.088443840082	0
542	3539	12.088481840082	0
542	3539	12.088481840082	0
542	3570	12.108669254657	0
542	3570	12.108669254657	0
542	3588	12.108707254657	0
542	3588	12.108707254657	0
542	3603	12.146298855127	0
542	3603	12.146298855127	0
542	3621	12.146336855127	0
542	3621	12.146336855127	0
542	3641	12.304071492562	0
542	3641	12.304071492562	2
542	3642	12.304071492562	2
542	3642	12.304071492562	0
542	3644	12.304071492562	0
542	3644	12.304071492562	0
542	3653	12.304109492562	0
542	3653	12.304109492562	0
542	3684	12.355900551893	0
542	3684	12.355900551893	0
542	3702	12.355938551893	0
542	3702	12.355938551893	0
542	3739	12.464644151471	0
542	3739	12.464644151471	0
542	3749	12.464682151471	0
542	3749	12.464682151471	0
542	3776	12.477854088735	0
542	3776	12.477854088735	0
542	3794	12.477892088735	0
542	3794	12.477892088735	0
542	3804	12.488443840082	0
542	3804	12.488443840082	0
542	3812	12.488481840082	0
542	3812	12.488481840082	0
542	3843	12.508669254657	0
542	3843	12.508669254657	0
542	3861	12.508707254657	0
542	3861	12.508707254657	0
542	3876	12.546298855127	0
542	3876	12.546298855127	0
542	3894	12.546336855127	0
542	3894	12.546336855127	0
542	3914	12.704071492562	0
542	3914	12.704071492562	2
542	3915	12.704071492562	2
542	3915	12.704071492562	0
542	3917	12.704071492562	0
542	3917	12.704071492562	0
542	3926	12.704109492562	0
542	3926	12.704109492562	0
542	3957	12.755900551893	0
542	3957	12.755900551893	0
542	3975	12.755938551893	0
542	3975	12.755938551893	0
542	4012	12.864644151471	0
542	4012	12.864644151471	0
542	4022	12.864682151471	0
542	4022	12.864682151471	0
542	4049	12.877854088735	0
542	4049	12.877854088735	0
542	4067	12.877892088735	0
542	4067	12.877892088735	0
542	4077	12.888443840082	0
542	4077	12.888443840082	0
542	4085	12.888481840082	0
542	4085	12.888481840082	0
542	4116	12.908669254657	0
542	4116	12.908669254657	0
542	4134	12.908707254657	0
542	4134	12.908707254657	0
542	4149	12.946298855127	0
542	4149	12.946298855127	0
542	4167	12.946336855127	0
542	4167	12.946336855127	0
542	4230	13.104071492562	0
542	4230	13.104071492562	2
542	4231	13.104071492562	2
542	4231	13.104071492562	0
542	4233	13.104071492562	0
542	4233	13.104071492562	0
542	4242	13.104109492562	0
542	4242	13.104109492562	0
542	4273	13.155900532203	0
542	4273	13.155900532203	0
542	4291	13.155938532203	0
542	4291	13.155938532203	0
542	4328	13.264644164654	0
542	4328	13.264644164654	0
542	4338	13.264682164654	0
542	4338	13.264682164654	0
542	4365	13.277854066742	0
542	4365	13.277854066742	0
542	4383	13.277892066742	0
542	4383	13.277892066742	0
542	4393	13.288443846308	0
542	4393	13.288443846308	0
542	4401	13.288481846308	0
542	4401	13.288481846308	0
542	4432	13.308669227782	0
542	4432	13.308669227782	0
542	4450	13.308707227782	0
542	4450	13.308707227782	0
542	4465	13.346298845153	0
542	4465	13.346298845153	0
542	4483	13.346336845153	0
542	4483	13.346336845153	0
542	4503	13.504071492562	0
542	4503	13.504071492562	2
542	4504	13.504071492562	2
542	4504	13.504071492562	0
542	4506	13.504071492562	0
542	4506	13.504071492562	0
542	4515	13.504109492562	0
542	4515	13.504109492562	0
542	4546	13.555900532203	0
542	4546	13.555900532203	0
542	4564	13.555938532203	0
542	4564	13.555938532203	0
542	4601	13.664644164654	0
542	4601	13.664644164654	0
542	4611	13.664682164654	0
542	4611	13.664682164654	0
542	4638	13.677854066742	0
542	4638	13.677854066742	0
542	4656	13.677892066742	0
542	4656	13.677892066742	0
542	4666	13.688443846308	0
542	4666	13.688443846308	0
542	4674	13.688481846308	0
542	4674	13.688481846308	0
542	4705	13.708669227782	0
542	4705	13.708669227782	0
542	4723	13.708707227782	0
542	4723	13.708707227782	0
542	4738	13.746298845153	0
542	4738	13.746298845153	0
542	4756	13.746336845153	0
542	4756	13.746336845153	0
542	4776	13.904071492562	0
542	4776	13.904071492562	2
542	4777	13.904071492562	2
542	4777	13.904071492562	0
542	4779	13.904071492562	0
542	4779	13.904071492562	0
542	4788	13.904109492562	0
542	4788	13.904109492562	0
542	4819	13.955900532203	0
542	4819	13.955900532203	0
542	4837	13.955938532203	0
542	4837	13.955938532203	0
544	2717	11	31
545	2791	11.104109492562	32
545	3063	11.504109492562	32
545	3336	11.904109492562	32
545	3652	12.304109492562	32
545	3925	12.704109492562	32
545	4241	13.104109492562	32
545	4514	13.504109492562	32
545	4787	13.904109492562	32
547	2791	11.104109492562	32
547	3063	11.504109492562	32
547	3336	11.904109492562	32
547	3652	12.304109492562	32
547	3925	12.704109492562	32
547	4241	13.104109492562	32
547	4514	13.504109492562	32
547	4787	13.904109492562	32
548	2791	11.104109492562	32
548	3063	11.504109492562	32
548	3336	11.904109492562	32
548	3652	12.304109492562	32
548	3925	12.704109492562	32
548	4241	13.104109492562	32
548	4514	13.504109492562	32
548	4787	13.904109492562	32
550	2791	11.104109492562	32
550	3063	11.504109492562	32
550	3336	11.904109492562	32
550	3652	12.304109492562	32
550	3925	12.704109492562	32
550	4241	13.104109492562	32
550	4514	13.504109492562	32
550	4787	13.904109492562	32
551	2842	11.155938569461	32
551	2888	11.264682141198	32
551	2933	11.277892114202	32
551	2951	11.288481836722	32
551	3000	11.308707280548	32
551	3033	11.346336861044	32
551	3114	11.555938569461	32
551	3161	11.664682141198	32
551	3206	11.677892114202	32
551	3224	11.688481836722	32
551	3273	11.708707280548	32
551	3306	11.746336861044	32
551	3387	11.955938569461	32
551	3477	12.064682151471	32
551	3522	12.077892088735	32
551	3540	12.088481840082	32
551	3589	12.108707254657	32
551	3622	12.146336855127	32
551	3703	12.355938551893	32
551	3750	12.464682151471	32
551	3795	12.477892088735	32
551	3813	12.488481840082	32
551	3862	12.508707254657	32
551	3895	12.546336855127	32
551	3976	12.755938551893	32
551	4023	12.864682151471	32
551	4068	12.877892088735	32
551	4086	12.888481840082	32
551	4135	12.908707254657	32
551	4168	12.946336855127	32
551	4292	13.155938532203	32
551	4339	13.264682164654	32
551	4384	13.277892066742	32
551	4402	13.288481846308	32
551	4451	13.308707227782	32
551	4484	13.346336845153	32
551	4565	13.555938532203	32
551	4612	13.664682164654	32
551	4657	13.677892066742	32
551	4675	13.688481846308	32
551	4724	13.708707227782	32
551	4757	13.746336845153	32
553	2842	11.155938569461	32
553	2888	11.264682141198	32
553	2933	11.277892114202	32
553	2951	11.288481836722	32
553	3000	11.308707280548	32
553	3033	11.346336861044	32
553	3114	11.555938569461	32
553	3161	11.664682141198	32
553	3206	11.677892114202	32
553	3224	11.688481836722	32
553	3273	11.708707280548	32
553	3306	11.746336861044	32
553	3387	11.955938569461	32
553	3477	12.064682151471	32
553	3522	12.077892088735	32
553	3540	12.088481840082	32
553	3589	12.108707254657	32
553	3622	12.146336855127	32
553	3703	12.355938551893	32
553	3750	12.464682151471	32
553	3795	12.477892088735	32
553	3813	12.488481840082	32
553	3862	12.508707254657	32
553	3895	12.546336855127	32
553	3976	12.755938551893	32
553	4023	12.864682151471	32
553	4068	12.877892088735	32
553	4086	12.888481840082	32
553	4135	12.908707254657	32
553	4168	12.946336855127	32
553	4292	13.155938532203	32
553	4339	13.264682164654	32
553	4384	13.277892066742	32
553	4402	13.288481846308	32
553	4451	13.308707227782	32
553	4484	13.346336845153	32
553	4565	13.555938532203	32
553	4612	13.664682164654	32
553	4657	13.677892066742	32
553	4675	13.688481846308	32
553	4724	13.708707227782	32
553	4757	13.746336845153	32
554	2842	11.155938569461	32
554	2888	11.264682141198	32
554	2933	11.277892114202	32
554	2951	11.288481836722	32
554	3000	11.308707280548	32
554	3033	11.346336861044	32
554	3114	11.555938569461	32
554	3161	11.664682141198	32
554	3206	11.677892114202	32
554	3224	11.688481836722	32
554	3273	11.708707280548	32
554	3306	11.746336861044	32
554	3387	11.955938569461	32
554	3477	12.064682151471	32
554	3522	12.077892088735	32
554	3540	12.088481840082	32
554	3589	12.108707254657	32
554	3622	12.146336855127	32
554	3703	12.355938551893	32
554	3750	12.464682151471	32
554	3795	12.477892088735	32
554	3813	12.488481840082	32
554	3862	12.508707254657	32
554	3895	12.546336855127	32
554	3976	12.755938551893	32
554	4023	12.864682151471	32
554	4068	12.877892088735	32
554	4086	12.888481840082	32
554	4135	12.908707254657	32
554	4168	12.946336855127	32
554	4292	13.155938532203	32
554	4339	13.264682164654	32
554	4384	13.277892066742	32
554	4402	13.288481846308	32
554	4451	13.308707227782	32
554	4484	13.346336845153	32
554	4565	13.555938532203	32
554	4612	13.664682164654	32
554	4657	13.677892066742	32
554	4675	13.688481846308	32
554	4724	13.708707227782	32
554	4757	13.746336845153	32
556	2842	11.155938569461	32
556	2888	11.264682141198	32
556	2933	11.277892114202	32
556	2951	11.288481836722	32
556	3000	11.308707280548	32
556	3033	11.346336861044	32
556	3114	11.555938569461	32
556	3161	11.664682141198	32
556	3206	11.677892114202	32
556	3224	11.688481836722	32
556	3273	11.708707280548	32
556	3306	11.746336861044	32
556	3387	11.955938569461	32
556	3477	12.064682151471	32
556	3522	12.077892088735	32
556	3540	12.088481840082	32
556	3589	12.108707254657	32
556	3622	12.146336855127	32
556	3703	12.355938551893	32
556	3750	12.464682151471	32
556	3795	12.477892088735	32
556	3813	12.488481840082	32
556	3862	12.508707254657	32
556	3895	12.546336855127	32
556	3976	12.755938551893	32
556	4023	12.864682151471	32
556	4068	12.877892088735	32
556	4086	12.888481840082	32
556	4135	12.908707254657	32
556	4168	12.946336855127	32
556	4292	13.155938532203	32
556	4339	13.264682164654	32
556	4384	13.277892066742	32
556	4402	13.288481846308	32
556	4451	13.308707227782	32
556	4484	13.346336845153	32
556	4565	13.555938532203	32
556	4612	13.664682164654	32
556	4657	13.677892066742	32
556	4675	13.688481846308	32
556	4724	13.708707227782	32
556	4757	13.746336845153	32
561	2717	11	0
561	2717	11	0
561	2782	11.104071492562	1
561	2791	11.104109492562	0
561	3054	11.504071492562	1
561	3063	11.504109492562	0
561	3327	11.904071492562	1
561	3336	11.904109492562	0
561	3643	12.304071492562	1
561	3652	12.304109492562	0
561	3916	12.704071492562	1
561	3925	12.704109492562	0
561	4232	13.104071492562	1
561	4241	13.104109492562	0
561	4505	13.504071492562	1
561	4514	13.504109492562	0
561	4778	13.904071492562	1
561	4787	13.904109492562	0
562	2782	11.104071492562	24000000
562	3054	11.504071492562	24000000
562	3327	11.904071492562	24000000
562	3643	12.304071492562	24000000
562	3916	12.704071492562	24000000
562	4232	13.104071492562	24000000
562	4505	13.504071492562	24000000
562	4778	13.904071492562	24000000
565	2782	11.104071492562	32
565	3054	11.504071492562	32
565	3327	11.904071492562	32
565	3643	12.304071492562	32
565	3916	12.704071492562	32
565	4232	13.104071492562	32
565	4505	13.504071492562	32
565	4778	13.904071492562	32
566	2765	11	36
566	3445	12	36
566	4204	13	36
567	2842	11.155938569461	32
567	2888	11.264682141198	32
567	2933	11.277892114202	32
567	2951	11.288481836722	32
567	3000	11.308707280548	32
567	3033	11.346336861044	32
567	3114	11.555938569461	32
567	3161	11.664682141198	32
567	3206	11.677892114202	32
567	3224	11.688481836722	32
567	3273	11.708707280548	32
567	3306	11.746336861044	32
567	3387	11.955938569461	32
567	3477	12.064682151471	32
567	3522	12.077892088735	32
567	3540	12.088481840082	32
567	3589	12.108707254657	32
567	3622	12.146336855127	32
567	3703	12.355938551893	32
567	3750	12.464682151471	32
567	3795	12.477892088735	32
567	3813	12.488481840082	32
567	3862	12.508707254657	32
567	3895	12.546336855127	32
567	3976	12.755938551893	32
567	4023	12.864682151471	32
567	4068	12.877892088735	32
567	4086	12.888481840082	32
567	4135	12.908707254657	32
567	4168	12.946336855127	32
567	4292	13.155938532203	32
567	4339	13.264682164654	32
567	4384	13.277892066742	32
567	4402	13.288481846308	32
567	4451	13.308707227782	32
567	4484	13.346336845153	32
567	4565	13.555938532203	32
567	4612	13.664682164654	32
567	4657	13.677892066742	32
567	4675	13.688481846308	32
567	4724	13.708707227782	32
567	4757	13.746336845153	32
568	2765	11	36
568	3445	12	36
568	4204	13	36
574	2765	11	36
574	3445	12	36
574	4204	13	36
575	2717	11	0
575	2717	11	0
575	2717	11	2
575	2783	11.104071492562	3
575	2792	11.104109492562	2
575	3055	11.504071492562	3
575	3064	11.504109492562	2
575	3328	11.904071492562	3
575	3337	11.904109492562	2
575	3644	12.304071492562	3
575	3653	12.304109492562	2
575	3917	12.704071492562	3
575	3926	12.704109492562	2
575	4233	13.104071492562	3
575	4242	13.104109492562	2
575	4506	13.504071492562	3
575	4515	13.504109492562	2
575	4779	13.904071492562	3
575	4788	13.904109492562	2
576	2717	11	1
576	2783	11.104071492562	0
576	2792	11.104109492562	1
576	2823	11.155900569461	3
576	2841	11.155938569461	1
576	2877	11.264644141198	3
576	2887	11.264682141198	1
576	2914	11.277854114202	3
576	2932	11.277892114202	1
576	2942	11.288443836722	3
576	2950	11.288481836722	1
576	2981	11.308669280548	3
576	2999	11.308707280548	1
576	3014	11.346298861044	3
576	3032	11.346336861044	1
576	3055	11.504071492562	0
576	3064	11.504109492562	1
576	3095	11.555900569461	3
576	3113	11.555938569461	1
576	3150	11.664644141198	3
576	3160	11.664682141198	1
576	3187	11.677854114202	3
576	3205	11.677892114202	1
576	3215	11.688443836722	3
576	3223	11.688481836722	1
576	3254	11.708669280548	3
576	3272	11.708707280548	1
576	3287	11.746298861044	3
576	3305	11.746336861044	1
576	3328	11.904071492562	0
576	3337	11.904109492562	1
576	3368	11.955900569461	3
576	3386	11.955938569461	1
576	3466	12.064644151471	3
576	3476	12.064682151471	1
576	3503	12.077854088735	3
576	3521	12.077892088735	1
576	3531	12.088443840082	3
576	3539	12.088481840082	1
576	3570	12.108669254657	3
576	3588	12.108707254657	1
576	3603	12.146298855127	3
576	3621	12.146336855127	1
576	3644	12.304071492562	0
576	3653	12.304109492562	1
576	3684	12.355900551893	3
576	3702	12.355938551893	1
576	3739	12.464644151471	3
576	3749	12.464682151471	1
576	3776	12.477854088735	3
576	3794	12.477892088735	1
576	3804	12.488443840082	3
576	3812	12.488481840082	1
576	3843	12.508669254657	3
576	3861	12.508707254657	1
576	3876	12.546298855127	3
576	3894	12.546336855127	1
576	3917	12.704071492562	0
576	3926	12.704109492562	1
576	3957	12.755900551893	3
576	3975	12.755938551893	1
576	4012	12.864644151471	3
576	4022	12.864682151471	1
576	4049	12.877854088735	3
576	4067	12.877892088735	1
576	4077	12.888443840082	3
576	4085	12.888481840082	1
576	4116	12.908669254657	3
576	4134	12.908707254657	1
576	4149	12.946298855127	3
576	4167	12.946336855127	1
576	4233	13.104071492562	0
576	4242	13.104109492562	1
576	4273	13.155900532203	3
576	4291	13.155938532203	1
576	4328	13.264644164654	3
576	4338	13.264682164654	1
576	4365	13.277854066742	3
576	4383	13.277892066742	1
576	4393	13.288443846308	3
576	4401	13.288481846308	1
576	4432	13.308669227782	3
576	4450	13.308707227782	1
576	4465	13.346298845153	3
576	4483	13.346336845153	1
576	4506	13.504071492562	0
576	4515	13.504109492562	1
576	4546	13.555900532203	3
576	4564	13.555938532203	1
576	4601	13.664644164654	3
576	4611	13.664682164654	1
576	4638	13.677854066742	3
576	4656	13.677892066742	1
576	4666	13.688443846308	3
576	4674	13.688481846308	1
576	4705	13.708669227782	3
576	4723	13.708707227782	1
576	4738	13.746298845153	3
576	4756	13.746336845153	1
576	4779	13.904071492562	0
576	4788	13.904109492562	1
576	4819	13.955900532203	3
576	4837	13.955938532203	1
577	2783	11.104071492562	1
577	2784	11.104071492562	2
577	2791	11.104109492562	1
577	2792	11.104109492562	0
577	3055	11.504071492562	1
577	3056	11.504071492562	2
577	3063	11.504109492562	1
577	3064	11.504109492562	0
577	3328	11.904071492562	1
577	3329	11.904071492562	2
577	3336	11.904109492562	1
577	3337	11.904109492562	0
577	3644	12.304071492562	1
577	3645	12.304071492562	2
577	3652	12.304109492562	1
577	3653	12.304109492562	0
577	3917	12.704071492562	1
577	3918	12.704071492562	2
577	3925	12.704109492562	1
577	3926	12.704109492562	0
577	4233	13.104071492562	1
577	4234	13.104071492562	2
577	4241	13.104109492562	1
577	4242	13.104109492562	0
577	4506	13.504071492562	1
577	4507	13.504071492562	2
577	4514	13.504109492562	1
577	4515	13.504109492562	0
577	4779	13.904071492562	1
577	4780	13.904071492562	2
577	4787	13.904109492562	1
577	4788	13.904109492562	0
578	2717	11	0
578	2769	11.004071492562	0
578	3040	11.404071492562	0
578	3313	11.804071492562	0
578	3629	12.204071492562	0
578	3902	12.604071492562	0
578	4218	13.004071492562	0
578	4491	13.404071492562	0
578	4764	13.804071492562	0
